! This hub-height wind-speed file was generated by TurbSim (from OpenFAST--128-NOTFOUND) on 04-Nov-2023 at 13:31:29.
!
! The requested statistics for this data were:
!    Mean Total Wind Speed =   20.000 m/s
!    Turbulence Intensity  =   14.420%
!
!   Time  HorSpd  WndDir  VerSpd  HorShr  VerShr  LnVShr  GstSpd
!  (sec)   (m/s)   (deg)   (m/s)     (-)     (-)     (-)   (m/s)
   0.000   16.26    3.96   -1.19   0.000   0.200   0.000    0.00
   0.050   16.51    5.75   -0.69   0.000   0.200   0.000    0.00
   0.100   17.13    6.31    0.12   0.000   0.200   0.000    0.00
   0.150   17.78    6.56    0.61   0.000   0.200   0.000    0.00
   0.200   16.70    6.83    0.78   0.000   0.200   0.000    0.00
   0.250   16.70    6.51    0.58   0.000   0.200   0.000    0.00
   0.300   16.81    4.79    0.41   0.000   0.200   0.000    0.00
   0.350   17.92    4.22    0.60   0.000   0.200   0.000    0.00
   0.400   17.84    3.84    0.49   0.000   0.200   0.000    0.00
   0.450   18.02    5.73    1.45   0.000   0.200   0.000    0.00
   0.500   18.19    7.97    2.23   0.000   0.200   0.000    0.00
   0.550   17.54   12.78    2.00   0.000   0.200   0.000    0.00
   0.600   17.76   15.79    1.92   0.000   0.200   0.000    0.00
   0.650   17.85   14.19    1.07   0.000   0.200   0.000    0.00
   0.700   17.45   15.19   -0.02   0.000   0.200   0.000    0.00
   0.750   17.20   13.76   -0.81   0.000   0.200   0.000    0.00
   0.800   17.15   10.81   -1.05   0.000   0.200   0.000    0.00
   0.850   17.70   11.49   -0.21   0.000   0.200   0.000    0.00
   0.900   18.53   13.22   -0.14   0.000   0.200   0.000    0.00
   0.950   18.20   12.37   -0.92   0.000   0.200   0.000    0.00
   1.000   18.55   13.26   -1.43   0.000   0.200   0.000    0.00
   1.050   17.89   16.76   -1.58   0.000   0.200   0.000    0.00
   1.100   18.69   14.87   -0.69   0.000   0.200   0.000    0.00
   1.150   18.26   14.11   -1.14   0.000   0.200   0.000    0.00
   1.200   17.50   17.51   -0.90   0.000   0.200   0.000    0.00
   1.250   17.38   17.59   -0.63   0.000   0.200   0.000    0.00
   1.300   17.49   15.42    0.18   0.000   0.200   0.000    0.00
   1.350   17.01   12.62    0.55   0.000   0.200   0.000    0.00
   1.400   17.07   13.61   -0.13   0.000   0.200   0.000    0.00
   1.450   17.16   13.55   -1.12   0.000   0.200   0.000    0.00
   1.500   17.10   13.79   -0.77   0.000   0.200   0.000    0.00
   1.550   16.97   12.36   -2.08   0.000   0.200   0.000    0.00
   1.600   17.75   14.51   -2.90   0.000   0.200   0.000    0.00
   1.650   17.68   14.51   -2.62   0.000   0.200   0.000    0.00
   1.700   18.12   13.40   -2.45   0.000   0.200   0.000    0.00
   1.750   16.91   14.88   -2.35   0.000   0.200   0.000    0.00
   1.800   16.11   16.49   -3.59   0.000   0.200   0.000    0.00
   1.850   17.12   12.69   -4.48   0.000   0.200   0.000    0.00
   1.900   17.02    9.80   -4.25   0.000   0.200   0.000    0.00
   1.950   16.92    8.39   -3.42   0.000   0.200   0.000    0.00
   2.000   17.16    9.08   -3.79   0.000   0.200   0.000    0.00
   2.050   17.23   11.50   -3.26   0.000   0.200   0.000    0.00
   2.100   16.74   10.72   -2.32   0.000   0.200   0.000    0.00
   2.150   15.94   11.93   -2.54   0.000   0.200   0.000    0.00
   2.200   16.74   13.34   -2.88   0.000   0.200   0.000    0.00
   2.250   16.18   15.12   -2.64   0.000   0.200   0.000    0.00
   2.300   16.22   11.60   -2.64   0.000   0.200   0.000    0.00
   2.350   16.69    8.38   -2.94   0.000   0.200   0.000    0.00
   2.400   18.22   11.02   -2.53   0.000   0.200   0.000    0.00
   2.450   18.10    9.67   -2.99   0.000   0.200   0.000    0.00
   2.500   17.32   10.89   -4.32   0.000   0.200   0.000    0.00
   2.550   16.92   11.94   -3.96   0.000   0.200   0.000    0.00
   2.600   16.46   15.41   -4.54   0.000   0.200   0.000    0.00
   2.650   16.54   15.50   -4.69   0.000   0.200   0.000    0.00
   2.700   16.58   16.91   -4.32   0.000   0.200   0.000    0.00
   2.750   17.16   18.83   -4.70   0.000   0.200   0.000    0.00
   2.800   17.50   17.44   -5.09   0.000   0.200   0.000    0.00
   2.850   17.11   19.81   -3.93   0.000   0.200   0.000    0.00
   2.900   17.02   17.51   -3.79   0.000   0.200   0.000    0.00
   2.950   16.97   13.81   -4.67   0.000   0.200   0.000    0.00
   3.000   16.98   14.16   -4.22   0.000   0.200   0.000    0.00
   3.050   18.02   14.02   -4.37   0.000   0.200   0.000    0.00
   3.100   18.46   10.43   -4.33   0.000   0.200   0.000    0.00
   3.150   18.74    9.11   -4.81   0.000   0.200   0.000    0.00
   3.200   18.97    9.72   -4.58   0.000   0.200   0.000    0.00
   3.250   19.01    7.69   -4.13   0.000   0.200   0.000    0.00
   3.300   18.29   10.55   -4.79   0.000   0.200   0.000    0.00
   3.350   17.72    6.65   -4.23   0.000   0.200   0.000    0.00
   3.400   18.28    5.36   -4.34   0.000   0.200   0.000    0.00
   3.450   17.06    9.34   -4.30   0.000   0.200   0.000    0.00
   3.500   16.63   10.18   -3.42   0.000   0.200   0.000    0.00
   3.550   16.39   10.05   -3.18   0.000   0.200   0.000    0.00
   3.600   16.64   10.68   -3.84   0.000   0.200   0.000    0.00
   3.650   16.48   12.17   -4.70   0.000   0.200   0.000    0.00
   3.700   16.28   11.05   -3.74   0.000   0.200   0.000    0.00
   3.750   16.98   12.67   -3.51   0.000   0.200   0.000    0.00
   3.800   17.31   12.41   -4.61   0.000   0.200   0.000    0.00
   3.850   17.78    8.11   -4.37   0.000   0.200   0.000    0.00
   3.900   18.92    5.99   -4.35   0.000   0.200   0.000    0.00
   3.950   18.77    6.45   -4.77   0.000   0.200   0.000    0.00
   4.000   18.57    2.29   -4.86   0.000   0.200   0.000    0.00
   4.050   18.83    1.53   -4.39   0.000   0.200   0.000    0.00
   4.100   18.25    2.47   -4.32   0.000   0.200   0.000    0.00
   4.150   17.89    4.15   -4.86   0.000   0.200   0.000    0.00
   4.200   17.96    0.08   -4.55   0.000   0.200   0.000    0.00
   4.250   17.81    0.99   -4.34   0.000   0.200   0.000    0.00
   4.300   17.60    1.33   -5.22   0.000   0.200   0.000    0.00
   4.350   17.21    0.83   -5.53   0.000   0.200   0.000    0.00
   4.400   16.65    2.03   -5.10   0.000   0.200   0.000    0.00
   4.450   16.12    0.13   -4.46   0.000   0.200   0.000    0.00
   4.500   15.57    1.12   -4.59   0.000   0.200   0.000    0.00
   4.550   15.93    4.07   -3.50   0.000   0.200   0.000    0.00
   4.600   16.58    4.67   -3.05   0.000   0.200   0.000    0.00
   4.650   17.06    4.10   -2.05   0.000   0.200   0.000    0.00
   4.700   17.04    0.74   -1.12   0.000   0.200   0.000    0.00
   4.750   17.47    3.52   -0.69   0.000   0.200   0.000    0.00
   4.800   17.41    3.73    1.50   0.000   0.200   0.000    0.00
   4.850   16.99    1.44    0.60   0.000   0.200   0.000    0.00
   4.900   17.08    4.67    0.39   0.000   0.200   0.000    0.00
   4.950   17.55    7.06   -0.28   0.000   0.200   0.000    0.00
   5.000   18.53    9.81   -0.99   0.000   0.200   0.000    0.00
   5.050   17.73    6.76   -1.60   0.000   0.200   0.000    0.00
   5.100   17.36    3.71   -2.55   0.000   0.200   0.000    0.00
   5.150   17.74    5.11   -2.84   0.000   0.200   0.000    0.00
   5.200   17.68    4.73   -2.18   0.000   0.200   0.000    0.00
   5.250   17.97    8.53   -2.71   0.000   0.200   0.000    0.00
   5.300   18.26    5.89   -3.04   0.000   0.200   0.000    0.00
   5.350   19.69    7.98   -2.88   0.000   0.200   0.000    0.00
   5.400   20.08    6.68   -2.06   0.000   0.200   0.000    0.00
   5.450   19.56    5.75   -1.80   0.000   0.200   0.000    0.00
   5.500   19.53    6.12   -1.98   0.000   0.200   0.000    0.00
   5.550   18.95    5.72   -2.17   0.000   0.200   0.000    0.00
   5.600   18.56    4.23   -2.24   0.000   0.200   0.000    0.00
   5.650   17.64    1.93   -2.18   0.000   0.200   0.000    0.00
   5.700   17.55   -0.75   -2.69   0.000   0.200   0.000    0.00
   5.750   18.11   -0.54   -2.38   0.000   0.200   0.000    0.00
   5.800   17.78   -1.78   -1.54   0.000   0.200   0.000    0.00
   5.850   17.63   -1.20   -0.74   0.000   0.200   0.000    0.00
   5.900   17.32    1.26   -1.39   0.000   0.200   0.000    0.00
   5.950   17.43    2.44   -2.07   0.000   0.200   0.000    0.00
   6.000   18.15    0.26   -1.94   0.000   0.200   0.000    0.00
   6.050   17.57   -0.38   -2.53   0.000   0.200   0.000    0.00
   6.100   18.50    3.03   -2.42   0.000   0.200   0.000    0.00
   6.150   19.12    1.66   -2.01   0.000   0.200   0.000    0.00
   6.200   18.15    1.66   -2.05   0.000   0.200   0.000    0.00
   6.250   18.15    3.21   -2.35   0.000   0.200   0.000    0.00
   6.300   19.00    4.22   -2.59   0.000   0.200   0.000    0.00
   6.350   18.44    2.33   -2.90   0.000   0.200   0.000    0.00
   6.400   17.34    1.57   -2.93   0.000   0.200   0.000    0.00
   6.450   17.77    2.92   -2.31   0.000   0.200   0.000    0.00
   6.500   19.10    2.40   -1.79   0.000   0.200   0.000    0.00
   6.550   19.86   -0.48   -2.82   0.000   0.200   0.000    0.00
   6.600   19.29    1.54   -3.57   0.000   0.200   0.000    0.00
   6.650   17.90    1.45   -3.61   0.000   0.200   0.000    0.00
   6.700   17.55   -2.29   -4.00   0.000   0.200   0.000    0.00
   6.750   17.92   -0.73   -3.40   0.000   0.200   0.000    0.00
   6.800   18.24   -1.67   -3.26   0.000   0.200   0.000    0.00
   6.850   18.40   -0.25   -2.93   0.000   0.200   0.000    0.00
   6.900   18.38    1.83   -1.87   0.000   0.200   0.000    0.00
   6.950   18.34    2.81   -1.75   0.000   0.200   0.000    0.00
   7.000   19.14    0.80   -1.47   0.000   0.200   0.000    0.00
   7.050   18.03   -0.68   -1.59   0.000   0.200   0.000    0.00
   7.100   18.05    0.55   -2.01   0.000   0.200   0.000    0.00
   7.150   17.82   -0.90   -2.04   0.000   0.200   0.000    0.00
   7.200   16.87    3.27   -0.96   0.000   0.200   0.000    0.00
   7.250   17.27    3.45   -1.54   0.000   0.200   0.000    0.00
   7.300   16.91    4.65   -0.88   0.000   0.200   0.000    0.00
   7.350   16.61    4.25   -0.90   0.000   0.200   0.000    0.00
   7.400   16.01    1.35   -0.87   0.000   0.200   0.000    0.00
   7.450   16.09    1.81   -1.06   0.000   0.200   0.000    0.00
   7.500   16.39    0.71   -0.71   0.000   0.200   0.000    0.00
   7.550   15.94   -1.68   -0.39   0.000   0.200   0.000    0.00
   7.600   15.19   -2.14   -0.40   0.000   0.200   0.000    0.00
   7.650   14.04   -2.23    0.62   0.000   0.200   0.000    0.00
   7.700   14.29   -0.16    0.92   0.000   0.200   0.000    0.00
   7.750   14.39   -0.37    1.05   0.000   0.200   0.000    0.00
   7.800   13.88   -3.06    1.07   0.000   0.200   0.000    0.00
   7.850   14.30   -3.35    0.92   0.000   0.200   0.000    0.00
   7.900   14.53   -7.28    0.71   0.000   0.200   0.000    0.00
   7.950   13.51   -9.21    0.36   0.000   0.200   0.000    0.00
   8.000   14.13   -7.10    0.42   0.000   0.200   0.000    0.00
   8.050   14.92   -3.72    0.64   0.000   0.200   0.000    0.00
   8.100   15.47   -5.53    0.18   0.000   0.200   0.000    0.00
   8.150   14.84   -5.15   -0.06   0.000   0.200   0.000    0.00
   8.200   14.47   -7.09   -0.17   0.000   0.200   0.000    0.00
   8.250   13.81   -8.90   -0.56   0.000   0.200   0.000    0.00
   8.300   14.25  -10.29   -0.15   0.000   0.200   0.000    0.00
   8.350   14.26  -11.89   -0.41   0.000   0.200   0.000    0.00
   8.400   14.95  -15.02   -0.31   0.000   0.200   0.000    0.00
   8.450   14.95  -10.24   -0.49   0.000   0.200   0.000    0.00
   8.500   15.80  -14.03    0.65   0.000   0.200   0.000    0.00
   8.550   15.82  -15.55    0.96   0.000   0.200   0.000    0.00
   8.600   15.71  -13.16    1.25   0.000   0.200   0.000    0.00
   8.650   15.44  -11.84    1.05   0.000   0.200   0.000    0.00
   8.700   16.33  -13.68    2.03   0.000   0.200   0.000    0.00
   8.750   16.83  -15.98    1.48   0.000   0.200   0.000    0.00
   8.800   16.28  -14.54    0.87   0.000   0.200   0.000    0.00
   8.850   15.90  -15.08    1.23   0.000   0.200   0.000    0.00
   8.900   15.46  -16.50    1.05   0.000   0.200   0.000    0.00
   8.950   14.77  -15.79   -0.11   0.000   0.200   0.000    0.00
   9.000   14.65  -11.17   -0.13   0.000   0.200   0.000    0.00
   9.050   14.53   -7.46    0.41   0.000   0.200   0.000    0.00
   9.100   14.80   -4.89    1.35   0.000   0.200   0.000    0.00
   9.150   15.15   -9.18    2.26   0.000   0.200   0.000    0.00
   9.200   14.97   -5.13    1.57   0.000   0.200   0.000    0.00
   9.250   15.81   -4.52    1.66   0.000   0.200   0.000    0.00
   9.300   14.99   -1.04    1.93   0.000   0.200   0.000    0.00
   9.350   14.90   -2.44    2.78   0.000   0.200   0.000    0.00
   9.400   15.20   -3.74    1.77   0.000   0.200   0.000    0.00
   9.450   16.14   -3.42    1.27   0.000   0.200   0.000    0.00
   9.500   15.96   -4.34    1.25   0.000   0.200   0.000    0.00
   9.550   16.16   -3.90    2.68   0.000   0.200   0.000    0.00
   9.600   16.82   -4.56    1.72   0.000   0.200   0.000    0.00
   9.650   17.81   -7.14    1.59   0.000   0.200   0.000    0.00
   9.700   17.23   -6.56    2.12   0.000   0.200   0.000    0.00
   9.750   17.59   -4.25    1.67   0.000   0.200   0.000    0.00
   9.800   18.20   -4.08    1.15   0.000   0.200   0.000    0.00
   9.850   18.58   -1.72    0.19   0.000   0.200   0.000    0.00
   9.900   18.32   -0.24   -0.50   0.000   0.200   0.000    0.00
   9.950   17.95   -0.39   -1.29   0.000   0.200   0.000    0.00
  10.000   19.09   -0.16   -0.04   0.000   0.200   0.000    0.00
  10.050   18.01   -0.41    0.41   0.000   0.200   0.000    0.00
  10.100   18.15   -2.01    0.44   0.000   0.200   0.000    0.00
  10.150   18.46    0.80    0.20   0.000   0.200   0.000    0.00
  10.200   16.54   -0.04   -0.15   0.000   0.200   0.000    0.00
  10.250   15.38   -0.01    0.12   0.000   0.200   0.000    0.00
  10.300   16.22   -3.69    0.68   0.000   0.200   0.000    0.00
  10.350   16.37   -3.23    1.67   0.000   0.200   0.000    0.00
  10.400   16.63   -4.93    2.05   0.000   0.200   0.000    0.00
  10.450   17.11   -5.28    1.36   0.000   0.200   0.000    0.00
  10.500   17.18   -4.96    0.15   0.000   0.200   0.000    0.00
  10.550   17.29   -3.31   -0.42   0.000   0.200   0.000    0.00
  10.600   17.66    0.06   -0.53   0.000   0.200   0.000    0.00
  10.650   17.89    1.26   -1.09   0.000   0.200   0.000    0.00
  10.700   17.55    0.94   -0.35   0.000   0.200   0.000    0.00
  10.750   17.84   -0.31   -0.38   0.000   0.200   0.000    0.00
  10.800   17.29   -1.12   -1.66   0.000   0.200   0.000    0.00
  10.850   17.35    2.13   -1.57   0.000   0.200   0.000    0.00
  10.900   16.43    2.67   -0.72   0.000   0.200   0.000    0.00
  10.950   17.48    3.90   -1.84   0.000   0.200   0.000    0.00
  11.000   17.98    0.85   -3.11   0.000   0.200   0.000    0.00
  11.050   18.40    0.96   -2.39   0.000   0.200   0.000    0.00
  11.100   18.12    1.25   -3.00   0.000   0.200   0.000    0.00
  11.150   17.68    3.82   -1.47   0.000   0.200   0.000    0.00
  11.200   18.01    2.89   -0.76   0.000   0.200   0.000    0.00
  11.250   17.39    2.71   -0.73   0.000   0.200   0.000    0.00
  11.300   18.25    4.21   -1.44   0.000   0.200   0.000    0.00
  11.350   18.49    1.61   -2.28   0.000   0.200   0.000    0.00
  11.400   18.16    2.95   -2.33   0.000   0.200   0.000    0.00
  11.450   17.50    1.05   -3.78   0.000   0.200   0.000    0.00
  11.500   17.07    2.66   -4.52   0.000   0.200   0.000    0.00
  11.550   16.87    4.50   -4.74   0.000   0.200   0.000    0.00
  11.600   16.06    4.43   -4.15   0.000   0.200   0.000    0.00
  11.650   15.21    6.65   -3.15   0.000   0.200   0.000    0.00
  11.700   15.54    5.91   -2.19   0.000   0.200   0.000    0.00
  11.750   16.33    4.15   -3.37   0.000   0.200   0.000    0.00
  11.800   16.04    1.31   -3.00   0.000   0.200   0.000    0.00
  11.850   15.65    3.55   -4.19   0.000   0.200   0.000    0.00
  11.900   14.83    4.42   -4.85   0.000   0.200   0.000    0.00
  11.950   15.29    2.38   -5.20   0.000   0.200   0.000    0.00
  12.000   14.64    2.63   -5.03   0.000   0.200   0.000    0.00
  12.050   14.96    3.30   -4.89   0.000   0.200   0.000    0.00
  12.100   15.37   -0.71   -5.26   0.000   0.200   0.000    0.00
  12.150   15.60   -0.95   -4.55   0.000   0.200   0.000    0.00
  12.200   16.05   -0.51   -4.18   0.000   0.200   0.000    0.00
  12.250   16.14   -2.22   -3.35   0.000   0.200   0.000    0.00
  12.300   17.35   -5.49   -3.40   0.000   0.200   0.000    0.00
  12.350   18.21   -5.68   -3.40   0.000   0.200   0.000    0.00
  12.400   18.11   -5.82   -3.02   0.000   0.200   0.000    0.00
  12.450   18.71   -7.22   -3.73   0.000   0.200   0.000    0.00
  12.500   19.58   -6.98   -2.22   0.000   0.200   0.000    0.00
  12.550   19.04   -2.46   -2.60   0.000   0.200   0.000    0.00
  12.600   19.41   -2.51   -2.41   0.000   0.200   0.000    0.00
  12.650   18.82   -1.68   -2.55   0.000   0.200   0.000    0.00
  12.700   19.01   -2.36   -2.49   0.000   0.200   0.000    0.00
  12.750   18.53    0.30   -2.10   0.000   0.200   0.000    0.00
  12.800   18.44    4.98   -3.04   0.000   0.200   0.000    0.00
  12.850   18.34    0.78   -3.74   0.000   0.200   0.000    0.00
  12.900   18.25    1.02   -4.50   0.000   0.200   0.000    0.00
  12.950   18.21    0.07   -4.37   0.000   0.200   0.000    0.00
  13.000   17.55   -0.09   -3.76   0.000   0.200   0.000    0.00
  13.050   17.53   -1.70   -4.29   0.000   0.200   0.000    0.00
  13.100   17.47    1.64   -4.58   0.000   0.200   0.000    0.00
  13.150   16.11    2.71   -4.03   0.000   0.200   0.000    0.00
  13.200   16.63   -0.39   -3.74   0.000   0.200   0.000    0.00
  13.250   16.56    1.17   -3.82   0.000   0.200   0.000    0.00
  13.300   17.25    2.46   -3.44   0.000   0.200   0.000    0.00
  13.350   18.00    0.80   -2.69   0.000   0.200   0.000    0.00
  13.400   18.13   -0.82   -2.51   0.000   0.200   0.000    0.00
  13.450   17.82   -1.12   -2.22   0.000   0.200   0.000    0.00
  13.500   17.69    2.15   -1.43   0.000   0.200   0.000    0.00
  13.550   17.68    1.75   -0.64   0.000   0.200   0.000    0.00
  13.600   17.72   -0.93   -0.77   0.000   0.200   0.000    0.00
  13.650   17.89   -0.25   -2.55   0.000   0.200   0.000    0.00
  13.700   18.03    1.05   -2.39   0.000   0.200   0.000    0.00
  13.750   19.08    3.39   -2.21   0.000   0.200   0.000    0.00
  13.800   18.37    6.02   -1.02   0.000   0.200   0.000    0.00
  13.850   18.93    6.99   -0.68   0.000   0.200   0.000    0.00
  13.900   18.89   10.36   -1.55   0.000   0.200   0.000    0.00
  13.950   18.64   10.02   -1.53   0.000   0.200   0.000    0.00
  14.000   18.57    5.83   -1.56   0.000   0.200   0.000    0.00
  14.050   18.05    4.85   -1.45   0.000   0.200   0.000    0.00
  14.100   17.23    5.69   -1.98   0.000   0.200   0.000    0.00
  14.150   16.86    4.59   -1.71   0.000   0.200   0.000    0.00
  14.200   17.00    6.56   -1.48   0.000   0.200   0.000    0.00
  14.250   18.15    7.89   -0.09   0.000   0.200   0.000    0.00
  14.300   18.26    4.37    0.07   0.000   0.200   0.000    0.00
  14.350   17.87    3.97    0.49   0.000   0.200   0.000    0.00
  14.400   17.96    4.42    0.81   0.000   0.200   0.000    0.00
  14.450   19.09    3.63    1.20   0.000   0.200   0.000    0.00
  14.500   18.72    3.23    0.92   0.000   0.200   0.000    0.00
  14.550   18.11    2.31    1.04   0.000   0.200   0.000    0.00
  14.600   18.67    2.12    1.95   0.000   0.200   0.000    0.00
  14.650   19.45    1.82    1.53   0.000   0.200   0.000    0.00
  14.700   18.64    2.73    1.87   0.000   0.200   0.000    0.00
  14.750   18.44    0.64    1.38   0.000   0.200   0.000    0.00
  14.800   18.49    2.12    1.27   0.000   0.200   0.000    0.00
  14.850   18.17    3.03    0.47   0.000   0.200   0.000    0.00
  14.900   18.24    3.09    0.47   0.000   0.200   0.000    0.00
  14.950   18.39    3.24   -0.35   0.000   0.200   0.000    0.00
  15.000   18.47    1.78   -0.46   0.000   0.200   0.000    0.00
  15.050   17.64    0.81   -0.79   0.000   0.200   0.000    0.00
  15.100   17.66   -0.99   -0.60   0.000   0.200   0.000    0.00
  15.150   17.76   -1.54    0.50   0.000   0.200   0.000    0.00
  15.200   17.33   -3.33    1.24   0.000   0.200   0.000    0.00
  15.250   17.87   -6.56    1.12   0.000   0.200   0.000    0.00
  15.300   18.03   -6.02    0.46   0.000   0.200   0.000    0.00
  15.350   19.02   -6.66    0.39   0.000   0.200   0.000    0.00
  15.400   19.39   -6.79    0.48   0.000   0.200   0.000    0.00
  15.450   19.46   -8.96    1.05   0.000   0.200   0.000    0.00
  15.500   19.26   -6.20    1.74   0.000   0.200   0.000    0.00
  15.550   18.81   -7.81    2.29   0.000   0.200   0.000    0.00
  15.600   18.66   -6.96    2.15   0.000   0.200   0.000    0.00
  15.650   18.93   -5.65    2.48   0.000   0.200   0.000    0.00
  15.700   18.48   -4.14    3.32   0.000   0.200   0.000    0.00
  15.750   18.06   -5.40    2.95   0.000   0.200   0.000    0.00
  15.800   17.87   -6.38    2.48   0.000   0.200   0.000    0.00
  15.850   18.72   -5.21    2.67   0.000   0.200   0.000    0.00
  15.900   19.23   -4.32    2.40   0.000   0.200   0.000    0.00
  15.950   20.40   -3.20    1.89   0.000   0.200   0.000    0.00
  16.000   20.14   -0.11    2.54   0.000   0.200   0.000    0.00
  16.050   19.60   -0.42    2.90   0.000   0.200   0.000    0.00
  16.100   19.77   -4.41    2.87   0.000   0.200   0.000    0.00
  16.150   19.52   -7.49    2.78   0.000   0.200   0.000    0.00
  16.200   20.93   -5.84    2.31   0.000   0.200   0.000    0.00
  16.250   20.75   -5.97    2.56   0.000   0.200   0.000    0.00
  16.300   20.31   -5.78    1.91   0.000   0.200   0.000    0.00
  16.350   20.51   -1.62    0.17   0.000   0.200   0.000    0.00
  16.400   20.25   -0.41    0.38   0.000   0.200   0.000    0.00
  16.450   20.10    0.62    1.42   0.000   0.200   0.000    0.00
  16.500   20.57    1.83    1.95   0.000   0.200   0.000    0.00
  16.550   20.46    3.48    2.51   0.000   0.200   0.000    0.00
  16.600   19.80    3.96    2.41   0.000   0.200   0.000    0.00
  16.650   19.72    4.18    1.51   0.000   0.200   0.000    0.00
  16.700   19.52    6.47    1.99   0.000   0.200   0.000    0.00
  16.750   19.99    5.17    1.44   0.000   0.200   0.000    0.00
  16.800   19.08    5.02    2.06   0.000   0.200   0.000    0.00
  16.850   18.85    3.90    1.29   0.000   0.200   0.000    0.00
  16.900   19.88    5.49    0.42   0.000   0.200   0.000    0.00
  16.950   20.29    4.37    1.39   0.000   0.200   0.000    0.00
  17.000   19.86    2.70    2.00   0.000   0.200   0.000    0.00
  17.050   20.34    1.10    2.22   0.000   0.200   0.000    0.00
  17.100   20.05    1.26    2.88   0.000   0.200   0.000    0.00
  17.150   19.50    1.02    2.91   0.000   0.200   0.000    0.00
  17.200   20.20    1.11    3.37   0.000   0.200   0.000    0.00
  17.250   20.08    0.27    4.00   0.000   0.200   0.000    0.00
  17.300   20.60    1.42    3.03   0.000   0.200   0.000    0.00
  17.350   19.73    2.55    3.44   0.000   0.200   0.000    0.00
  17.400   19.37    1.44    3.23   0.000   0.200   0.000    0.00
  17.450   18.36   -1.95    2.13   0.000   0.200   0.000    0.00
  17.500   18.13   -0.59    2.86   0.000   0.200   0.000    0.00
  17.550   18.59   -2.20    3.06   0.000   0.200   0.000    0.00
  17.600   18.86   -1.95    3.80   0.000   0.200   0.000    0.00
  17.650   19.22    1.84    4.81   0.000   0.200   0.000    0.00
  17.700   18.76    3.62    6.28   0.000   0.200   0.000    0.00
  17.750   18.94    2.51    6.34   0.000   0.200   0.000    0.00
  17.800   19.01    1.56    5.60   0.000   0.200   0.000    0.00
  17.850   18.26    3.20    5.60   0.000   0.200   0.000    0.00
  17.900   17.57    2.54    6.22   0.000   0.200   0.000    0.00
  17.950   18.26    3.62    6.11   0.000   0.200   0.000    0.00
  18.000   19.11    1.28    4.97   0.000   0.200   0.000    0.00
  18.050   18.48   -0.50    4.40   0.000   0.200   0.000    0.00
  18.100   18.17    3.25    4.23   0.000   0.200   0.000    0.00
  18.150   18.24    2.57    4.78   0.000   0.200   0.000    0.00
  18.200   19.43   -0.11    3.84   0.000   0.200   0.000    0.00
  18.250   18.75   -3.01    3.62   0.000   0.200   0.000    0.00
  18.300   19.06   -0.58    2.94   0.000   0.200   0.000    0.00
  18.350   18.53   -2.66    1.87   0.000   0.200   0.000    0.00
  18.400   17.87   -2.09    1.30   0.000   0.200   0.000    0.00
  18.450   17.58   -9.34    1.09   0.000   0.200   0.000    0.00
  18.500   17.64  -10.08    0.87   0.000   0.200   0.000    0.00
  18.550   18.28   -9.93    1.48   0.000   0.200   0.000    0.00
  18.600   18.66   -9.92    1.43   0.000   0.200   0.000    0.00
  18.650   19.42  -10.47    0.13   0.000   0.200   0.000    0.00
  18.700   20.71  -12.33   -0.72   0.000   0.200   0.000    0.00
  18.750   19.56  -11.45   -1.05   0.000   0.200   0.000    0.00
  18.800   20.15   -8.88   -0.74   0.000   0.200   0.000    0.00
  18.850   20.44   -8.79   -0.66   0.000   0.200   0.000    0.00
  18.900   20.35  -11.75   -0.05   0.000   0.200   0.000    0.00
  18.950   20.82  -13.31    1.80   0.000   0.200   0.000    0.00
  19.000   19.98   -9.80    2.33   0.000   0.200   0.000    0.00
  19.050   20.48   -5.41    2.79   0.000   0.200   0.000    0.00
  19.100   21.38   -7.92    2.74   0.000   0.200   0.000    0.00
  19.150   21.57   -7.80    1.62   0.000   0.200   0.000    0.00
  19.200   22.13   -6.46    1.53   0.000   0.200   0.000    0.00
  19.250   21.89   -7.31    2.31   0.000   0.200   0.000    0.00
  19.300   22.12   -6.75    1.91   0.000   0.200   0.000    0.00
  19.350   22.26   -8.30    1.24   0.000   0.200   0.000    0.00
  19.400   23.49  -11.24    1.90   0.000   0.200   0.000    0.00
  19.450   22.09   -9.69    2.34   0.000   0.200   0.000    0.00
  19.500   22.46   -9.44    1.95   0.000   0.200   0.000    0.00
  19.550   21.68   -9.44    1.36   0.000   0.200   0.000    0.00
  19.600   21.30   -7.17    0.32   0.000   0.200   0.000    0.00
  19.650   21.24   -5.92   -0.29   0.000   0.200   0.000    0.00
  19.700   20.49   -5.18   -0.95   0.000   0.200   0.000    0.00
  19.750   20.76   -6.66   -1.75   0.000   0.200   0.000    0.00
  19.800   20.34  -10.64   -1.13   0.000   0.200   0.000    0.00
  19.850   20.36   -9.52   -1.37   0.000   0.200   0.000    0.00
  19.900   20.42  -12.85   -2.41   0.000   0.200   0.000    0.00
  19.950   19.94  -12.92   -3.07   0.000   0.200   0.000    0.00
  20.000   20.28  -13.53   -3.32   0.000   0.200   0.000    0.00
  20.050   18.73  -11.60   -2.51   0.000   0.200   0.000    0.00
  20.100   17.89  -13.19   -1.66   0.000   0.200   0.000    0.00
  20.150   17.40  -15.17   -2.00   0.000   0.200   0.000    0.00
  20.200   17.34  -16.90   -1.24   0.000   0.200   0.000    0.00
  20.250   16.80  -16.04   -2.26   0.000   0.200   0.000    0.00
  20.300   16.97  -15.78   -2.74   0.000   0.200   0.000    0.00
  20.350   16.86  -12.46   -3.19   0.000   0.200   0.000    0.00
  20.400   16.14  -11.38   -3.94   0.000   0.200   0.000    0.00
  20.450   16.27   -9.50   -3.83   0.000   0.200   0.000    0.00
  20.500   16.93   -6.21   -4.01   0.000   0.200   0.000    0.00
  20.550   16.58   -4.31   -3.56   0.000   0.200   0.000    0.00
  20.600   15.73   -2.41   -3.65   0.000   0.200   0.000    0.00
  20.650   16.40   -3.49   -2.96   0.000   0.200   0.000    0.00
  20.700   17.05   -3.81   -2.75   0.000   0.200   0.000    0.00
  20.750   16.08   -0.56   -2.58   0.000   0.200   0.000    0.00
  20.800   16.90   -3.56   -2.49   0.000   0.200   0.000    0.00
  20.850   18.30   -4.64   -1.94   0.000   0.200   0.000    0.00
  20.900   18.11   -6.81   -1.40   0.000   0.200   0.000    0.00
  20.950   17.49   -3.83   -1.75   0.000   0.200   0.000    0.00
  21.000   17.07   -2.72   -0.80   0.000   0.200   0.000    0.00
  21.050   17.61   -1.69   -0.89   0.000   0.200   0.000    0.00
  21.100   17.52   -0.29   -2.32   0.000   0.200   0.000    0.00
  21.150   16.87   -1.45   -2.81   0.000   0.200   0.000    0.00
  21.200   16.16   -1.53   -2.79   0.000   0.200   0.000    0.00
  21.250   16.53   -4.96   -2.30   0.000   0.200   0.000    0.00
  21.300   16.77   -4.25   -2.83   0.000   0.200   0.000    0.00
  21.350   17.68   -5.38   -3.42   0.000   0.200   0.000    0.00
  21.400   17.25   -5.63   -2.75   0.000   0.200   0.000    0.00
  21.450   17.24   -4.57   -2.61   0.000   0.200   0.000    0.00
  21.500   16.39    0.43   -2.60   0.000   0.200   0.000    0.00
  21.550   15.88    0.66   -2.56   0.000   0.200   0.000    0.00
  21.600   15.68    0.56   -3.53   0.000   0.200   0.000    0.00
  21.650   16.18    2.81   -3.51   0.000   0.200   0.000    0.00
  21.700   16.27    1.84   -3.94   0.000   0.200   0.000    0.00
  21.750   15.39   -2.32   -4.95   0.000   0.200   0.000    0.00
  21.800   16.62   -0.99   -4.01   0.000   0.200   0.000    0.00
  21.850   16.10    0.71   -4.72   0.000   0.200   0.000    0.00
  21.900   16.07    0.02   -4.27   0.000   0.200   0.000    0.00
  21.950   16.05   -0.92   -4.31   0.000   0.200   0.000    0.00
  22.000   16.21   -0.94   -4.55   0.000   0.200   0.000    0.00
  22.050   16.12   -2.84   -5.24   0.000   0.200   0.000    0.00
  22.100   15.43   -6.21   -5.42   0.000   0.200   0.000    0.00
  22.150   15.83   -2.11   -5.05   0.000   0.200   0.000    0.00
  22.200   15.54   -1.52   -4.15   0.000   0.200   0.000    0.00
  22.250   15.57    0.81   -3.61   0.000   0.200   0.000    0.00
  22.300   14.91   -0.83   -3.23   0.000   0.200   0.000    0.00
  22.350   14.52   -0.51   -2.92   0.000   0.200   0.000    0.00
  22.400   14.44   -2.00   -2.10   0.000   0.200   0.000    0.00
  22.450   14.67   -2.88   -2.73   0.000   0.200   0.000    0.00
  22.500   14.27   -2.43   -2.93   0.000   0.200   0.000    0.00
  22.550   13.95    1.24   -2.11   0.000   0.200   0.000    0.00
  22.600   13.10   -2.49   -2.10   0.000   0.200   0.000    0.00
  22.650   12.76   -3.57   -2.12   0.000   0.200   0.000    0.00
  22.700   12.72   -8.34   -2.31   0.000   0.200   0.000    0.00