! This hub-height wind-speed file was generated by TurbSim (from OpenFAST--128-NOTFOUND) on 04-Nov-2023 at 13:31:41.
!
! The requested statistics for this data were:
!    Mean Total Wind Speed =   20.000 m/s
!    Turbulence Intensity  =   14.420%
!
!   Time  HorSpd  WndDir  VerSpd  HorShr  VerShr  LnVShr  GstSpd
!  (sec)   (m/s)   (deg)   (m/s)     (-)     (-)     (-)   (m/s)
   0.000   17.22    1.90   -0.36   0.000   0.200   0.000    0.00
   0.050   16.77    1.15   -1.07   0.000   0.200   0.000    0.00
   0.100   15.82    3.15   -1.87   0.000   0.200   0.000    0.00
   0.150   15.82    1.69   -2.18   0.000   0.200   0.000    0.00
   0.200   15.66    0.70   -2.21   0.000   0.200   0.000    0.00
   0.250   15.13   -0.51   -2.20   0.000   0.200   0.000    0.00
   0.300   15.57    1.87   -1.65   0.000   0.200   0.000    0.00
   0.350   16.40    1.58   -2.47   0.000   0.200   0.000    0.00
   0.400   16.47    0.17   -2.25   0.000   0.200   0.000    0.00
   0.450   16.15    1.95   -1.42   0.000   0.200   0.000    0.00
   0.500   16.63    5.25   -1.82   0.000   0.200   0.000    0.00
   0.550   15.86    1.76   -1.44   0.000   0.200   0.000    0.00
   0.600   16.40    1.96   -1.17   0.000   0.200   0.000    0.00
   0.650   16.72    2.25   -0.88   0.000   0.200   0.000    0.00
   0.700   16.54    2.33   -1.22   0.000   0.200   0.000    0.00
   0.750   15.62   -1.84   -0.75   0.000   0.200   0.000    0.00
   0.800   15.73   -1.71   -0.78   0.000   0.200   0.000    0.00
   0.850   15.39   -1.07   -1.07   0.000   0.200   0.000    0.00
   0.900   14.82   -0.60   -1.54   0.000   0.200   0.000    0.00
   0.950   15.40   -1.91   -1.31   0.000   0.200   0.000    0.00
   1.000   16.41   -3.02   -0.76   0.000   0.200   0.000    0.00
   1.050   15.13   -3.99   -0.11   0.000   0.200   0.000    0.00
   1.100   15.12   -3.35   -0.22   0.000   0.200   0.000    0.00
   1.150   15.58   -2.90    0.36   0.000   0.200   0.000    0.00
   1.200   14.59   -0.75   -0.26   0.000   0.200   0.000    0.00
   1.250   14.76    0.25   -0.63   0.000   0.200   0.000    0.00
   1.300   14.55    0.84   -1.52   0.000   0.200   0.000    0.00
   1.350   15.39    1.13   -1.25   0.000   0.200   0.000    0.00
   1.400   15.12    1.87   -1.43   0.000   0.200   0.000    0.00
   1.450   14.90    3.56   -1.97   0.000   0.200   0.000    0.00
   1.500   15.03    3.81   -1.72   0.000   0.200   0.000    0.00
   1.550   14.89    1.71   -2.59   0.000   0.200   0.000    0.00
   1.600   14.56    0.44   -3.30   0.000   0.200   0.000    0.00
   1.650   14.48    4.65   -2.91   0.000   0.200   0.000    0.00
   1.700   15.02    6.12   -2.28   0.000   0.200   0.000    0.00
   1.750   14.84    5.12   -2.21   0.000   0.200   0.000    0.00
   1.800   14.54    5.59   -1.73   0.000   0.200   0.000    0.00
   1.850   14.23    8.52   -1.99   0.000   0.200   0.000    0.00
   1.900   13.36    8.01   -1.76   0.000   0.200   0.000    0.00
   1.950   12.37   10.87   -2.22   0.000   0.200   0.000    0.00
   2.000   13.19   17.44   -2.25   0.000   0.200   0.000    0.00
   2.050   13.17   12.01   -1.57   0.000   0.200   0.000    0.00
   2.100   13.69    7.68   -1.26   0.000   0.200   0.000    0.00
   2.150   13.66    6.74   -1.91   0.000   0.200   0.000    0.00
   2.200   13.46    5.38   -1.14   0.000   0.200   0.000    0.00
   2.250   13.88    0.74   -1.43   0.000   0.200   0.000    0.00
   2.300   13.77   -1.63   -2.28   0.000   0.200   0.000    0.00
   2.350   13.90   -0.28   -0.91   0.000   0.200   0.000    0.00
   2.400   13.90   -4.30   -0.56   0.000   0.200   0.000    0.00
   2.450   14.93   -3.35   -0.50   0.000   0.200   0.000    0.00
   2.500   14.23   -7.42    0.62   0.000   0.200   0.000    0.00
   2.550   14.33  -11.56    0.60   0.000   0.200   0.000    0.00
   2.600   15.01   -4.68    0.84   0.000   0.200   0.000    0.00
   2.650   14.07   -7.58    0.82   0.000   0.200   0.000    0.00
   2.700   14.71   -7.49    1.21   0.000   0.200   0.000    0.00
   2.750   14.89  -11.60    1.24   0.000   0.200   0.000    0.00
   2.800   15.50  -11.73    1.17   0.000   0.200   0.000    0.00
   2.850   16.81   -8.65    1.68   0.000   0.200   0.000    0.00
   2.900   16.93   -7.99    1.11   0.000   0.200   0.000    0.00
   2.950   16.84   -6.64    0.09   0.000   0.200   0.000    0.00
   3.000   16.87   -9.39   -0.63   0.000   0.200   0.000    0.00
   3.050   17.26   -9.52   -0.73   0.000   0.200   0.000    0.00
   3.100   17.15  -10.34   -0.42   0.000   0.200   0.000    0.00
   3.150   17.50  -10.43   -0.64   0.000   0.200   0.000    0.00
   3.200   16.93   -9.11   -0.97   0.000   0.200   0.000    0.00
   3.250   17.55   -8.91   -1.31   0.000   0.200   0.000    0.00
   3.300   17.51   -9.34   -2.60   0.000   0.200   0.000    0.00
   3.350   17.27   -9.64   -2.90   0.000   0.200   0.000    0.00
   3.400   17.48   -9.83   -3.00   0.000   0.200   0.000    0.00
   3.450   16.66   -9.01   -3.17   0.000   0.200   0.000    0.00
   3.500   16.21   -8.32   -2.69   0.000   0.200   0.000    0.00
   3.550   16.63   -5.71   -2.74   0.000   0.200   0.000    0.00
   3.600   17.06   -6.49   -4.10   0.000   0.200   0.000    0.00
   3.650   16.90   -7.96   -4.34   0.000   0.200   0.000    0.00
   3.700   16.46   -6.66   -2.96   0.000   0.200   0.000    0.00
   3.750   16.19   -6.44   -2.43   0.000   0.200   0.000    0.00
   3.800   16.16   -4.46   -1.92   0.000   0.200   0.000    0.00
   3.850   16.93   -3.17   -2.23   0.000   0.200   0.000    0.00
   3.900   17.47   -4.25   -2.24   0.000   0.200   0.000    0.00
   3.950   17.46   -2.06   -2.74   0.000   0.200   0.000    0.00
   4.000   17.53   -4.80   -2.12   0.000   0.200   0.000    0.00
   4.050   17.24   -4.37   -1.84   0.000   0.200   0.000    0.00
   4.100   16.83   -5.37   -2.52   0.000   0.200   0.000    0.00
   4.150   16.92   -5.41   -2.76   0.000   0.200   0.000    0.00
   4.200   16.77   -7.22   -3.13   0.000   0.200   0.000    0.00
   4.250   16.88   -7.27   -3.99   0.000   0.200   0.000    0.00
   4.300   15.93   -4.10   -5.39   0.000   0.200   0.000    0.00
   4.350   16.06   -4.89   -6.57   0.000   0.200   0.000    0.00
   4.400   15.58   -5.00   -6.10   0.000   0.200   0.000    0.00
   4.450   16.61   -4.30   -4.46   0.000   0.200   0.000    0.00
   4.500   16.72   -2.37   -4.65   0.000   0.200   0.000    0.00
   4.550   17.92   -1.31   -3.65   0.000   0.200   0.000    0.00
   4.600   18.22   -3.99   -3.69   0.000   0.200   0.000    0.00
   4.650   19.19   -6.21   -4.54   0.000   0.200   0.000    0.00
   4.700   19.14   -5.28   -4.62   0.000   0.200   0.000    0.00
   4.750   18.26   -4.00   -4.91   0.000   0.200   0.000    0.00
   4.800   18.36   -1.27   -4.51   0.000   0.200   0.000    0.00
   4.850   18.77    1.13   -4.44   0.000   0.200   0.000    0.00
   4.900   18.67   -0.58   -4.49   0.000   0.200   0.000    0.00
   4.950   19.14   -3.14   -3.92   0.000   0.200   0.000    0.00
   5.000   18.59   -2.87   -3.89   0.000   0.200   0.000    0.00
   5.050   18.85   -4.91   -2.93   0.000   0.200   0.000    0.00
   5.100   18.27   -4.64   -2.05   0.000   0.200   0.000    0.00
   5.150   18.21   -3.99   -2.06   0.000   0.200   0.000    0.00
   5.200   17.59   -5.46   -2.74   0.000   0.200   0.000    0.00
   5.250   17.58   -6.10   -2.35   0.000   0.200   0.000    0.00
   5.300   17.80   -7.11   -2.29   0.000   0.200   0.000    0.00
   5.350   17.84   -9.35   -1.35   0.000   0.200   0.000    0.00
   5.400   17.52  -11.45   -0.98   0.000   0.200   0.000    0.00
   5.450   18.38  -13.98   -2.11   0.000   0.200   0.000    0.00
   5.500   17.82  -11.23   -2.41   0.000   0.200   0.000    0.00
   5.550   16.52  -11.29   -3.07   0.000   0.200   0.000    0.00
   5.600   16.33  -12.68   -3.01   0.000   0.200   0.000    0.00
   5.650   16.07   -9.53   -3.31   0.000   0.200   0.000    0.00
   5.700   16.09  -13.09   -2.74   0.000   0.200   0.000    0.00
   5.750   16.45   -8.40   -2.20   0.000   0.200   0.000    0.00
   5.800   16.80  -10.87   -1.92   0.000   0.200   0.000    0.00
   5.850   16.33   -9.33   -1.59   0.000   0.200   0.000    0.00
   5.900   16.70   -7.40   -0.81   0.000   0.200   0.000    0.00
   5.950   16.93  -10.57   -0.08   0.000   0.200   0.000    0.00
   6.000   17.48  -14.57   -0.63   0.000   0.200   0.000    0.00
   6.050   16.32  -11.96    0.26   0.000   0.200   0.000    0.00
   6.100   16.29  -11.37   -0.60   0.000   0.200   0.000    0.00
   6.150   16.18  -10.85   -1.32   0.000   0.200   0.000    0.00
   6.200   16.10  -11.96   -1.71   0.000   0.200   0.000    0.00
   6.250   16.52  -11.32   -1.40   0.000   0.200   0.000    0.00
   6.300   17.17   -9.24   -0.51   0.000   0.200   0.000    0.00
   6.350   16.85   -8.00   -0.35   0.000   0.200   0.000    0.00
   6.400   17.14   -9.96   -1.08   0.000   0.200   0.000    0.00
   6.450   17.32   -8.88   -1.24   0.000   0.200   0.000    0.00
   6.500   18.27   -7.70   -2.01   0.000   0.200   0.000    0.00
   6.550   18.69   -9.95   -1.98   0.000   0.200   0.000    0.00
   6.600   19.25  -10.11   -2.17   0.000   0.200   0.000    0.00
   6.650   18.69  -11.58   -2.39   0.000   0.200   0.000    0.00
   6.700   17.73   -9.86   -2.89   0.000   0.200   0.000    0.00
   6.750   18.04  -12.84   -3.68   0.000   0.200   0.000    0.00
   6.800   18.78  -14.70   -3.49   0.000   0.200   0.000    0.00
   6.850   19.12  -14.97   -3.48   0.000   0.200   0.000    0.00
   6.900   18.76  -13.22   -2.58   0.000   0.200   0.000    0.00
   6.950   18.14  -13.37   -3.11   0.000   0.200   0.000    0.00
   7.000   18.09  -13.56   -3.22   0.000   0.200   0.000    0.00
   7.050   17.88  -12.00   -2.74   0.000   0.200   0.000    0.00
   7.100   16.13  -13.31   -2.92   0.000   0.200   0.000    0.00
   7.150   16.31  -10.87   -2.78   0.000   0.200   0.000    0.00
   7.200   16.23  -11.82   -2.31   0.000   0.200   0.000    0.00
   7.250   17.99   -7.70   -3.13   0.000   0.200   0.000    0.00
   7.300   18.25   -8.12   -3.42   0.000   0.200   0.000    0.00
   7.350   17.69   -9.48   -3.94   0.000   0.200   0.000    0.00
   7.400   16.82   -8.05   -2.68   0.000   0.200   0.000    0.00
   7.450   16.60   -9.41   -2.82   0.000   0.200   0.000    0.00
   7.500   16.69  -10.11   -2.64   0.000   0.200   0.000    0.00
   7.550   17.04  -11.55   -2.97   0.000   0.200   0.000    0.00
   7.600   16.57  -12.52   -3.17   0.000   0.200   0.000    0.00
   7.650   17.21  -13.39   -3.16   0.000   0.200   0.000    0.00
   7.700   17.41  -12.67   -2.76   0.000   0.200   0.000    0.00
   7.750   17.70  -10.22   -3.04   0.000   0.200   0.000    0.00
   7.800   18.09   -7.05   -3.47   0.000   0.200   0.000    0.00
   7.850   17.94   -8.87   -4.06   0.000   0.200   0.000    0.00
   7.900   17.61  -10.79   -3.97   0.000   0.200   0.000    0.00
   7.950   17.17  -15.75   -3.60   0.000   0.200   0.000    0.00
   8.000   17.66  -18.98   -3.88   0.000   0.200   0.000    0.00
   8.050   17.27  -17.36   -4.05   0.000   0.200   0.000    0.00
   8.100   17.84  -17.75   -3.53   0.000   0.200   0.000    0.00
   8.150   17.65  -21.46   -3.88   0.000   0.200   0.000    0.00
   8.200   18.46  -18.85   -2.83   0.000   0.200   0.000    0.00
   8.250   18.96  -16.90   -2.60   0.000   0.200   0.000    0.00
   8.300   18.45  -14.82   -2.64   0.000   0.200   0.000    0.00
   8.350   18.80  -12.79   -2.85   0.000   0.200   0.000    0.00
   8.400   18.11  -11.58   -2.20   0.000   0.200   0.000    0.00
   8.450   18.06  -10.68   -2.35   0.000   0.200   0.000    0.00
   8.500   17.45   -7.88   -3.38   0.000   0.200   0.000    0.00
   8.550   17.76   -7.10   -2.39   0.000   0.200   0.000    0.00
   8.600   17.57   -9.50   -2.25   0.000   0.200   0.000    0.00
   8.650   16.95  -11.73   -3.13   0.000   0.200   0.000    0.00
   8.700   17.41  -14.70   -3.26   0.000   0.200   0.000    0.00
   8.750   17.73  -12.02   -2.17   0.000   0.200   0.000    0.00
   8.800   17.28   -8.38   -2.02   0.000   0.200   0.000    0.00
   8.850   17.64   -7.68   -2.78   0.000   0.200   0.000    0.00
   8.900   18.01   -3.65   -3.58   0.000   0.200   0.000    0.00
   8.950   17.74   -4.53   -2.31   0.000   0.200   0.000    0.00
   9.000   18.14   -4.79   -1.74   0.000   0.200   0.000    0.00
   9.050   17.65   -6.62   -1.47   0.000   0.200   0.000    0.00
   9.100   18.05  -11.13   -1.61   0.000   0.200   0.000    0.00
   9.150   17.98  -13.07   -1.80   0.000   0.200   0.000    0.00
   9.200   17.04  -11.61   -1.65   0.000   0.200   0.000    0.00
   9.250   16.86   -9.77   -0.66   0.000   0.200   0.000    0.00
   9.300   17.57   -6.10   -0.96   0.000   0.200   0.000    0.00
   9.350   17.26   -7.20   -0.60   0.000   0.200   0.000    0.00
   9.400   17.26   -6.98   -0.68   0.000   0.200   0.000    0.00
   9.450   16.57   -9.13   -0.34   0.000   0.200   0.000    0.00
   9.500   16.43   -9.92    0.14   0.000   0.200   0.000    0.00
   9.550   16.82   -7.09    0.57   0.000   0.200   0.000    0.00
   9.600   16.54   -9.05   -0.05   0.000   0.200   0.000    0.00
   9.650   17.36   -7.62   -0.14   0.000   0.200   0.000    0.00
   9.700   17.86   -6.13    0.14   0.000   0.200   0.000    0.00
   9.750   18.90   -5.60    0.12   0.000   0.200   0.000    0.00
   9.800   18.72   -4.72   -0.39   0.000   0.200   0.000    0.00
   9.850   18.38   -4.69   -0.81   0.000   0.200   0.000    0.00
   9.900   18.13   -4.96   -0.40   0.000   0.200   0.000    0.00
   9.950   18.60   -1.17   -0.62   0.000   0.200   0.000    0.00
  10.000   18.53    0.69   -0.94   0.000   0.200   0.000    0.00
  10.050   18.77   -1.63   -0.75   0.000   0.200   0.000    0.00
  10.100   18.88   -3.71   -0.35   0.000   0.200   0.000    0.00
  10.150   18.61   -5.40   -0.80   0.000   0.200   0.000    0.00
  10.200   17.86   -6.15    0.25   0.000   0.200   0.000    0.00
  10.250   17.87   -6.91    0.58   0.000   0.200   0.000    0.00
  10.300   17.89   -8.76   -0.06   0.000   0.200   0.000    0.00
  10.350   18.91   -5.91    0.36   0.000   0.200   0.000    0.00
  10.400   19.55   -6.73    0.55   0.000   0.200   0.000    0.00
  10.450   19.13   -8.72    0.73   0.000   0.200   0.000    0.00
  10.500   19.13   -9.97    0.93   0.000   0.200   0.000    0.00
  10.550   19.25  -10.18    0.97   0.000   0.200   0.000    0.00
  10.600   19.20   -9.64    1.44   0.000   0.200   0.000    0.00
  10.650   19.92   -8.62    1.81   0.000   0.200   0.000    0.00
  10.700   19.48   -8.06    0.58   0.000   0.200   0.000    0.00
  10.750   19.11   -5.79    0.92   0.000   0.200   0.000    0.00
  10.800   18.70   -7.42    1.53   0.000   0.200   0.000    0.00
  10.850   18.83   -7.24    1.69   0.000   0.200   0.000    0.00
  10.900   18.81   -5.75    1.31   0.000   0.200   0.000    0.00
  10.950   18.09   -5.78    1.60   0.000   0.200   0.000    0.00
  11.000   17.52   -3.85    0.58   0.000   0.200   0.000    0.00
  11.050   18.20   -6.27    0.97   0.000   0.200   0.000    0.00
  11.100   18.88   -4.96    0.93   0.000   0.200   0.000    0.00
  11.150   18.58   -6.12    0.94   0.000   0.200   0.000    0.00
  11.200   19.08   -5.53    0.58   0.000   0.200   0.000    0.00
  11.250   19.63   -6.73    0.20   0.000   0.200   0.000    0.00
  11.300   18.61   -4.81    0.68   0.000   0.200   0.000    0.00
  11.350   17.94   -6.49    0.62   0.000   0.200   0.000    0.00
  11.400   18.74   -2.47    0.67   0.000   0.200   0.000    0.00
  11.450   18.89   -2.93    0.79   0.000   0.200   0.000    0.00
  11.500   18.02   -3.79    0.74   0.000   0.200   0.000    0.00
  11.550   18.65   -2.26    0.70   0.000   0.200   0.000    0.00
  11.600   18.25   -2.54    0.56   0.000   0.200   0.000    0.00
  11.650   18.74   -4.93    0.42   0.000   0.200   0.000    0.00
  11.700   18.94   -4.56    0.66   0.000   0.200   0.000    0.00
  11.750   18.55   -5.40   -0.10   0.000   0.200   0.000    0.00
  11.800   17.93   -3.88    0.73   0.000   0.200   0.000    0.00
  11.850   16.70   -3.50    1.21   0.000   0.200   0.000    0.00
  11.900   16.47   -3.32    1.76   0.000   0.200   0.000    0.00
  11.950   16.79   -3.54    1.82   0.000   0.200   0.000    0.00
  12.000   16.98   -4.81    1.49   0.000   0.200   0.000    0.00
  12.050   16.60   -5.44    1.12   0.000   0.200   0.000    0.00
  12.100   16.23   -4.41    1.21   0.000   0.200   0.000    0.00
  12.150   17.08   -4.94    1.32   0.000   0.200   0.000    0.00
  12.200   17.17   -5.26    2.20   0.000   0.200   0.000    0.00
  12.250   17.13   -6.13    2.47   0.000   0.200   0.000    0.00
  12.300   17.43   -4.54    2.40   0.000   0.200   0.000    0.00
  12.350   17.77   -5.47    1.89   0.000   0.200   0.000    0.00
  12.400   17.96   -5.11    1.00   0.000   0.200   0.000    0.00
  12.450   17.86   -6.93    0.26   0.000   0.200   0.000    0.00
  12.500   16.97   -6.81    0.54   0.000   0.200   0.000    0.00
  12.550   15.93   -6.30    0.47   0.000   0.200   0.000    0.00
  12.600   16.33   -6.42    0.29   0.000   0.200   0.000    0.00
  12.650   16.98   -6.96    1.16   0.000   0.200   0.000    0.00
  12.700   17.11   -9.11    1.57   0.000   0.200   0.000    0.00
  12.750   17.32   -7.58    1.22   0.000   0.200   0.000    0.00
  12.800   17.38   -5.83    1.62   0.000   0.200   0.000    0.00
  12.850   17.47   -6.38    2.37   0.000   0.200   0.000    0.00
  12.900   17.89   -8.06    1.93   0.000   0.200   0.000    0.00
  12.950   18.12   -9.10    1.87   0.000   0.200   0.000    0.00
  13.000   18.52   -9.82    2.28   0.000   0.200   0.000    0.00
  13.050   17.73   -6.28    2.27   0.000   0.200   0.000    0.00
  13.100   17.24   -5.43    1.88   0.000   0.200   0.000    0.00
  13.150   17.28   -5.87    2.17   0.000   0.200   0.000    0.00
  13.200   16.98   -2.72    2.30   0.000   0.200   0.000    0.00
  13.250   17.94   -2.90    3.26   0.000   0.200   0.000    0.00
  13.300   18.23   -4.42    3.05   0.000   0.200   0.000    0.00
  13.350   18.64   -2.52    2.57   0.000   0.200   0.000    0.00
  13.400   18.26    1.85    2.73   0.000   0.200   0.000    0.00
  13.450   18.91    1.08    1.98   0.000   0.200   0.000    0.00
  13.500   19.34    0.14    1.97   0.000   0.200   0.000    0.00
  13.550   19.40   -1.70    3.04   0.000   0.200   0.000    0.00
  13.600   19.67   -3.82    2.68   0.000   0.200   0.000    0.00
  13.650   20.07   -5.67    2.76   0.000   0.200   0.000    0.00
  13.700   20.20   -2.72    2.04   0.000   0.200   0.000    0.00
  13.750   20.18   -3.64    1.13   0.000   0.200   0.000    0.00
  13.800   20.16   -4.29    0.28   0.000   0.200   0.000    0.00
  13.850   19.07   -1.10   -0.01   0.000   0.200   0.000    0.00
  13.900   19.18   -1.15   -0.09   0.000   0.200   0.000    0.00
  13.950   19.58   -1.56   -0.49   0.000   0.200   0.000    0.00
  14.000   17.79   -4.32   -1.05   0.000   0.200   0.000    0.00
  14.050   17.49   -4.74   -1.87   0.000   0.200   0.000    0.00
  14.100   17.63   -2.01   -1.45   0.000   0.200   0.000    0.00
  14.150   17.15   -2.29   -1.72   0.000   0.200   0.000    0.00
  14.200   18.03   -2.49   -1.83   0.000   0.200   0.000    0.00
  14.250   18.13    0.15   -1.97   0.000   0.200   0.000    0.00
  14.300   18.14   -2.03   -1.29   0.000   0.200   0.000    0.00
  14.350   18.35   -3.73   -1.19   0.000   0.200   0.000    0.00
  14.400   18.66   -2.83   -1.47   0.000   0.200   0.000    0.00
  14.450   18.69   -3.99   -1.72   0.000   0.200   0.000    0.00
  14.500   18.36   -6.47   -1.83   0.000   0.200   0.000    0.00
  14.550   18.80   -7.19   -1.86   0.000   0.200   0.000    0.00
  14.600   18.36   -8.15   -2.24   0.000   0.200   0.000    0.00
  14.650   18.32   -7.73   -3.23   0.000   0.200   0.000    0.00
  14.700   18.09   -8.15   -4.07   0.000   0.200   0.000    0.00
  14.750   17.47   -9.99   -4.01   0.000   0.200   0.000    0.00
  14.800   17.57  -11.26   -4.43   0.000   0.200   0.000    0.00
  14.850   17.56   -9.59   -4.01   0.000   0.200   0.000    0.00
  14.900   18.25   -9.56   -3.62   0.000   0.200   0.000    0.00
  14.950   18.55   -9.29   -3.26   0.000   0.200   0.000    0.00
  15.000   18.46   -7.49   -3.52   0.000   0.200   0.000    0.00
  15.050   17.23   -8.62   -3.50   0.000   0.200   0.000    0.00
  15.100   17.45   -8.83   -2.17   0.000   0.200   0.000    0.00
  15.150   17.25   -8.77   -3.96   0.000   0.200   0.000    0.00
  15.200   16.66   -9.73   -4.40   0.000   0.200   0.000    0.00
  15.250   16.35   -9.05   -3.52   0.000   0.200   0.000    0.00
  15.300   16.02  -10.94   -4.07   0.000   0.200   0.000    0.00
  15.350   16.85  -11.39   -3.82   0.000   0.200   0.000    0.00
  15.400   16.82  -15.14   -3.40   0.000   0.200   0.000    0.00
  15.450   17.41  -12.00   -2.55   0.000   0.200   0.000    0.00
  15.500   18.19  -11.26   -2.59   0.000   0.200   0.000    0.00
  15.550   18.49   -7.16   -2.87   0.000   0.200   0.000    0.00
  15.600   18.82   -5.96   -2.46   0.000   0.200   0.000    0.00
  15.650   18.60   -5.70   -2.07   0.000   0.200   0.000    0.00
  15.700   18.83   -6.12   -1.17   0.000   0.200   0.000    0.00
  15.750   17.74   -7.06   -0.72   0.000   0.200   0.000    0.00
  15.800   18.89   -7.58   -0.83   0.000   0.200   0.000    0.00
  15.850   18.61   -7.16   -0.45   0.000   0.200   0.000    0.00
  15.900   18.79   -9.94    0.42   0.000   0.200   0.000    0.00
  15.950   17.85  -12.03    0.30   0.000   0.200   0.000    0.00
  16.000   18.32  -12.07    0.38   0.000   0.200   0.000    0.00
  16.050   17.80  -11.03   -0.42   0.000   0.200   0.000    0.00
  16.100   18.50  -10.54   -0.18   0.000   0.200   0.000    0.00
  16.150   18.80   -9.31   -0.30   0.000   0.200   0.000    0.00
  16.200   18.77   -7.98   -0.66   0.000   0.200   0.000    0.00
  16.250   18.35   -6.22   -1.15   0.000   0.200   0.000    0.00
  16.300   18.84   -4.52   -1.23   0.000   0.200   0.000    0.00
  16.350   19.61   -6.67   -0.39   0.000   0.200   0.000    0.00
  16.400   19.11   -6.53   -0.45   0.000   0.200   0.000    0.00
  16.450   19.49   -8.14   -1.07   0.000   0.200   0.000    0.00
  16.500   19.61   -9.28   -1.30   0.000   0.200   0.000    0.00
  16.550   19.39   -6.21   -1.13   0.000   0.200   0.000    0.00
  16.600   19.81   -4.89    0.10   0.000   0.200   0.000    0.00
  16.650   19.59   -5.14   -0.31   0.000   0.200   0.000    0.00
  16.700   18.86   -5.67    0.00   0.000   0.200   0.000    0.00
  16.750   18.59   -1.94   -0.65   0.000   0.200   0.000    0.00
  16.800   18.89   -3.79   -1.07   0.000   0.200   0.000    0.00
  16.850   19.46   -4.82   -1.55   0.000   0.200   0.000    0.00
  16.900   18.66   -5.16   -1.51   0.000   0.200   0.000    0.00
  16.950   19.29   -5.74   -1.71   0.000   0.200   0.000    0.00
  17.000   19.11   -3.46   -1.08   0.000   0.200   0.000    0.00
  17.050   18.57   -4.21   -0.06   0.000   0.200   0.000    0.00
  17.100   18.22   -2.75    0.20   0.000   0.200   0.000    0.00
  17.150   17.66   -2.01    0.75   0.000   0.200   0.000    0.00
  17.200   17.03   -0.26    0.74   0.000   0.200   0.000    0.00
  17.250   17.17    1.13    1.51   0.000   0.200   0.000    0.00
  17.300   18.04   -2.57    1.13   0.000   0.200   0.000    0.00
  17.350   18.35   -1.41    1.31   0.000   0.200   0.000    0.00
  17.400   18.28   -2.70    2.03   0.000   0.200   0.000    0.00
  17.450   17.15   -1.89    1.21   0.000   0.200   0.000    0.00
  17.500   16.87   -4.01    1.07   0.000   0.200   0.000    0.00
  17.550   16.73   -0.72    1.35   0.000   0.200   0.000    0.00
  17.600   16.88    0.72    1.13   0.000   0.200   0.000    0.00
  17.650   16.32   -1.46    0.76   0.000   0.200   0.000    0.00
  17.700   16.00   -1.72    0.05   0.000   0.200   0.000    0.00
  17.750   15.94    0.58    0.43   0.000   0.200   0.000    0.00
  17.800   15.56   -1.08    0.89   0.000   0.200   0.000    0.00
  17.850   14.67   -3.61    1.32   0.000   0.200   0.000    0.00
  17.900   15.24   -7.00    1.93   0.000   0.200   0.000    0.00
  17.950   15.65   -8.84    2.53   0.000   0.200   0.000    0.00
  18.000   15.23   -4.18    2.54   0.000   0.200   0.000    0.00
  18.050   15.11   -3.35    2.43   0.000   0.200   0.000    0.00
  18.100   14.77   -2.60    1.56   0.000   0.200   0.000    0.00
  18.150   14.99   -1.04    0.54   0.000   0.200   0.000    0.00
  18.200   15.26   -0.57    1.59   0.000   0.200   0.000    0.00
  18.250   14.82   -3.44    1.02   0.000   0.200   0.000    0.00
  18.300   15.08   -2.27    1.00   0.000   0.200   0.000    0.00
  18.350   15.84   -2.79    1.18   0.000   0.200   0.000    0.00
  18.400   16.09   -4.44    1.53   0.000   0.200   0.000    0.00
  18.450   15.66   -3.75    2.73   0.000   0.200   0.000    0.00
  18.500   16.16   -5.29    2.73   0.000   0.200   0.000    0.00
  18.550   16.38   -5.45    3.67   0.000   0.200   0.000    0.00
  18.600   16.01   -5.98    4.13   0.000   0.200   0.000    0.00
  18.650   15.56   -2.74    4.50   0.000   0.200   0.000    0.00
  18.700   15.36   -2.05    3.87   0.000   0.200   0.000    0.00
  18.750   14.70   -2.99    3.48   0.000   0.200   0.000    0.00
  18.800   14.52   -4.63    3.49   0.000   0.200   0.000    0.00
  18.850   14.34   -4.46    3.57   0.000   0.200   0.000    0.00
  18.900   14.28   -3.40    3.56   0.000   0.200   0.000    0.00
  18.950   14.97   -1.69    3.03   0.000   0.200   0.000    0.00
  19.000   14.02   -1.54    3.15   0.000   0.200   0.000    0.00
  19.050   13.59   -0.96    4.03   0.000   0.200   0.000    0.00
  19.100   12.78   -1.93    4.60   0.000   0.200   0.000    0.00
  19.150   13.40   -4.39    4.04   0.000   0.200   0.000    0.00
  19.200   13.43   -2.31    3.90   0.000   0.200   0.000    0.00
  19.250   14.07   -7.02    4.33   0.000   0.200   0.000    0.00
  19.300   14.28   -7.64    3.59   0.000   0.200   0.000    0.00
  19.350   13.92   -5.78    4.76   0.000   0.200   0.000    0.00
  19.400   14.40   -6.18    5.16   0.000   0.200   0.000    0.00
  19.450   14.53   -8.17    4.55   0.000   0.200   0.000    0.00
  19.500   15.00   -9.50    3.97   0.000   0.200   0.000    0.00
  19.550   14.84  -12.28    4.03   0.000   0.200   0.000    0.00
  19.600   15.44  -13.41    3.46   0.000   0.200   0.000    0.00
  19.650   16.02  -12.96    4.00   0.000   0.200   0.000    0.00
  19.700   16.32  -12.55    4.15   0.000   0.200   0.000    0.00
  19.750   15.30  -13.30    4.96   0.000   0.200   0.000    0.00
  19.800   15.76  -14.49    4.73   0.000   0.200   0.000    0.00
  19.850   17.10  -14.20    3.49   0.000   0.200   0.000    0.00
  19.900   16.79  -16.39    2.96   0.000   0.200   0.000    0.00
  19.950   16.19  -14.86    3.45   0.000   0.200   0.000    0.00
  20.000   16.33  -15.24    2.79   0.000   0.200   0.000    0.00
  20.050   15.89  -11.08    3.12   0.000   0.200   0.000    0.00
  20.100   16.26   -8.26    3.07   0.000   0.200   0.000    0.00
  20.150   15.64  -13.09    2.68   0.000   0.200   0.000    0.00
  20.200   15.14  -10.88    3.23   0.000   0.200   0.000    0.00
  20.250   15.85   -2.41    2.93   0.000   0.200   0.000    0.00
  20.300   15.79   -3.57    2.41   0.000   0.200   0.000    0.00
  20.350   15.23   -0.31    1.26   0.000   0.200   0.000    0.00
  20.400   16.15   -1.52    3.03   0.000   0.200   0.000    0.00
  20.450   16.14   -1.87    2.70   0.000   0.200   0.000    0.00
  20.500   16.25   -2.00    3.36   0.000   0.200   0.000    0.00
  20.550   16.37   -3.61    2.69   0.000   0.200   0.000    0.00
  20.600   15.93   -6.93    2.10   0.000   0.200   0.000    0.00
  20.650   16.14   -7.49    3.03   0.000   0.200   0.000    0.00
  20.700   16.00   -4.62    3.63   0.000   0.200   0.000    0.00
  20.750   16.50   -6.73    1.66   0.000   0.200   0.000    0.00
  20.800   16.70   -7.39    1.55   0.000   0.200   0.000    0.00
  20.850   17.24   -5.33    1.34   0.000   0.200   0.000    0.00
  20.900   17.36   -0.56    0.80   0.000   0.200   0.000    0.00
  20.950   17.63    0.57    0.76   0.000   0.200   0.000    0.00
  21.000   17.38   -1.42    2.40   0.000   0.200   0.000    0.00
  21.050   17.32   -1.34    2.01   0.000   0.200   0.000    0.00
  21.100   17.40    0.64    0.75   0.000   0.200   0.000    0.00
  21.150   17.95    0.53    0.64   0.000   0.200   0.000    0.00
  21.200   18.08    0.18    0.98   0.000   0.200   0.000    0.00
  21.250   17.42    1.20    0.77   0.000   0.200   0.000    0.00
  21.300   18.05   -0.10    1.31   0.000   0.200   0.000    0.00
  21.350   18.04    4.87    1.31   0.000   0.200   0.000    0.00
  21.400   18.07    4.73    0.61   0.000   0.200   0.000    0.00
  21.450   17.45    3.04    0.08   0.000   0.200   0.000    0.00
  21.500   17.18    1.78    0.38   0.000   0.200   0.000    0.00
  21.550   16.90   -0.35    0.49   0.000   0.200   0.000    0.00
  21.600   16.08    4.21    1.61   0.000   0.200   0.000    0.00
  21.650   15.35   12.58    1.75   0.000   0.200   0.000    0.00
  21.700   16.62   12.35    0.61   0.000   0.200   0.000    0.00
  21.750   16.55    8.60    0.53   0.000   0.200   0.000    0.00
  21.800   16.38    8.83    0.69   0.000   0.200   0.000    0.00
  21.850   15.86   12.30    1.74   0.000   0.200   0.000    0.00
  21.900   16.18   11.23    2.50   0.000   0.200   0.000    0.00
  21.950   16.71    8.66    2.54   0.000   0.200   0.000    0.00
  22.000   17.39    8.13    2.02   0.000   0.200   0.000    0.00
  22.050   17.90    4.86    1.42   0.000   0.200   0.000    0.00
  22.100   18.25    4.52    1.47   0.000   0.200   0.000    0.00
  22.150   17.29    5.69    1.67   0.000   0.200   0.000    0.00
  22.200   17.89    2.75    2.09   0.000   0.200   0.000    0.00
  22.250   18.35    3.78    2.23   0.000   0.200   0.000    0.00
  22.300   18.40    7.72    1.58   0.000   0.200   0.000    0.00
  22.350   18.71    5.53    1.78   0.000   0.200   0.000    0.00
  22.400   17.97    7.35    1.21   0.000   0.200   0.000    0.00
  22.450   19.47    8.90    1.68   0.000   0.200   0.000    0.00
  22.500   19.71   10.81    1.32   0.000   0.200   0.000    0.00
  22.550   20.08   10.14    1.33   0.000   0.200   0.000    0.00
  22.600   19.87   12.34    1.21   0.000   0.200   0.000    0.00
  22.650   19.50   12.95    1.28   0.000   0.200   0.000    0.00
  22.700   18.81    9.05    0.45   0.000   0.200   0.000    0.00