! This hub-height wind-speed file was generated by TurbSim (from OpenFAST--128-NOTFOUND) on 04-Nov-2023 at 13:31:44.
!
! The requested statistics for this data were:
!    Mean Total Wind Speed =   20.000 m/s
!    Turbulence Intensity  =   14.420%
!
!   Time  HorSpd  WndDir  VerSpd  HorShr  VerShr  LnVShr  GstSpd
!  (sec)   (m/s)   (deg)   (m/s)     (-)     (-)     (-)   (m/s)
   0.000   16.70  -18.66    0.11   0.000   0.200   0.000    0.00
   0.050   16.83  -16.39    0.77   0.000   0.200   0.000    0.00
   0.100   16.22  -16.94    0.21   0.000   0.200   0.000    0.00
   0.150   16.74  -15.75   -0.10   0.000   0.200   0.000    0.00
   0.200   17.13  -16.53   -0.73   0.000   0.200   0.000    0.00
   0.250   16.95  -12.78   -0.90   0.000   0.200   0.000    0.00
   0.300   16.00  -10.84   -0.02   0.000   0.200   0.000    0.00
   0.350   15.30   -6.91   -0.67   0.000   0.200   0.000    0.00
   0.400   15.51  -10.62   -1.28   0.000   0.200   0.000    0.00
   0.450   15.27  -11.32   -1.10   0.000   0.200   0.000    0.00
   0.500   15.62  -14.16   -1.92   0.000   0.200   0.000    0.00
   0.550   16.19  -13.49   -2.25   0.000   0.200   0.000    0.00
   0.600   15.54   -7.87   -1.75   0.000   0.200   0.000    0.00
   0.650   15.55   -6.29   -1.62   0.000   0.200   0.000    0.00
   0.700   15.92   -5.65   -1.71   0.000   0.200   0.000    0.00
   0.750   15.76   -5.82   -0.87   0.000   0.200   0.000    0.00
   0.800   16.24   -5.67   -0.79   0.000   0.200   0.000    0.00
   0.850   16.28   -5.09   -1.94   0.000   0.200   0.000    0.00
   0.900   16.32   -1.80   -2.04   0.000   0.200   0.000    0.00
   0.950   15.94   -3.71   -2.19   0.000   0.200   0.000    0.00
   1.000   15.14   -3.90   -1.40   0.000   0.200   0.000    0.00
   1.050   16.04   -2.96   -2.04   0.000   0.200   0.000    0.00
   1.100   16.66   -6.62   -2.32   0.000   0.200   0.000    0.00
   1.150   16.65   -7.84   -2.11   0.000   0.200   0.000    0.00
   1.200   17.47   -6.02   -1.54   0.000   0.200   0.000    0.00
   1.250   17.32   -8.40   -1.26   0.000   0.200   0.000    0.00
   1.300   17.38   -5.40   -1.93   0.000   0.200   0.000    0.00
   1.350   17.95   -1.73   -2.21   0.000   0.200   0.000    0.00
   1.400   18.27   -2.42   -2.69   0.000   0.200   0.000    0.00
   1.450   18.01   -1.22   -2.71   0.000   0.200   0.000    0.00
   1.500   18.58   -2.76   -3.28   0.000   0.200   0.000    0.00
   1.550   19.77   -5.68   -3.72   0.000   0.200   0.000    0.00
   1.600   20.12   -7.01   -2.59   0.000   0.200   0.000    0.00
   1.650   20.58   -7.91   -2.16   0.000   0.200   0.000    0.00
   1.700   20.82   -6.98   -1.41   0.000   0.200   0.000    0.00
   1.750   20.87   -5.87   -2.06   0.000   0.200   0.000    0.00
   1.800   21.03   -6.22   -2.04   0.000   0.200   0.000    0.00
   1.850   20.61   -6.36   -2.38   0.000   0.200   0.000    0.00
   1.900   21.23   -8.07   -2.31   0.000   0.200   0.000    0.00
   1.950   21.45   -6.73   -2.33   0.000   0.200   0.000    0.00
   2.000   20.85   -5.23   -1.61   0.000   0.200   0.000    0.00
   2.050   21.71   -5.61   -1.61   0.000   0.200   0.000    0.00
   2.100   21.63   -7.54   -2.00   0.000   0.200   0.000    0.00
   2.150   20.99   -7.56   -2.77   0.000   0.200   0.000    0.00
   2.200   20.77   -7.34   -2.82   0.000   0.200   0.000    0.00
   2.250   20.45   -5.76   -3.38   0.000   0.200   0.000    0.00
   2.300   21.30   -4.46   -3.14   0.000   0.200   0.000    0.00
   2.350   21.04   -8.61   -2.36   0.000   0.200   0.000    0.00
   2.400   21.72   -9.20   -2.07   0.000   0.200   0.000    0.00
   2.450   21.70   -9.35   -2.62   0.000   0.200   0.000    0.00
   2.500   21.18   -9.07   -2.54   0.000   0.200   0.000    0.00
   2.550   21.43   -6.81   -2.02   0.000   0.200   0.000    0.00
   2.600   21.79   -7.35   -2.36   0.000   0.200   0.000    0.00
   2.650   21.51   -9.45   -1.72   0.000   0.200   0.000    0.00
   2.700   20.66   -9.26   -1.62   0.000   0.200   0.000    0.00
   2.750   20.58   -9.29   -0.25   0.000   0.200   0.000    0.00
   2.800   21.44   -9.88   -0.03   0.000   0.200   0.000    0.00
   2.850   21.62  -10.27   -0.80   0.000   0.200   0.000    0.00
   2.900   21.57   -8.16   -1.36   0.000   0.200   0.000    0.00
   2.950   22.29   -9.25   -1.36   0.000   0.200   0.000    0.00
   3.000   22.92   -9.60   -1.18   0.000   0.200   0.000    0.00
   3.050   23.47   -9.72   -1.76   0.000   0.200   0.000    0.00
   3.100   23.02  -10.28   -2.70   0.000   0.200   0.000    0.00
   3.150   23.24  -10.49   -2.31   0.000   0.200   0.000    0.00
   3.200   23.31  -10.99   -1.54   0.000   0.200   0.000    0.00
   3.250   23.86  -11.45   -2.34   0.000   0.200   0.000    0.00
   3.300   24.33   -9.72   -2.26   0.000   0.200   0.000    0.00
   3.350   24.59   -9.23   -1.51   0.000   0.200   0.000    0.00
   3.400   25.07  -11.76   -1.59   0.000   0.200   0.000    0.00
   3.450   25.09   -9.95   -2.94   0.000   0.200   0.000    0.00
   3.500   25.87   -7.60   -2.99   0.000   0.200   0.000    0.00
   3.550   25.35   -8.21   -2.96   0.000   0.200   0.000    0.00
   3.600   24.83   -8.71   -2.58   0.000   0.200   0.000    0.00
   3.650   24.69   -9.65   -2.85   0.000   0.200   0.000    0.00
   3.700   24.55   -8.24   -1.90   0.000   0.200   0.000    0.00
   3.750   24.74   -9.24   -2.05   0.000   0.200   0.000    0.00
   3.800   24.73   -9.96   -2.49   0.000   0.200   0.000    0.00
   3.850   24.83  -11.65   -2.61   0.000   0.200   0.000    0.00
   3.900   24.65  -14.15   -3.96   0.000   0.200   0.000    0.00
   3.950   24.82  -12.94   -4.27   0.000   0.200   0.000    0.00
   4.000   24.56  -13.73   -4.41   0.000   0.200   0.000    0.00
   4.050   24.69  -13.16   -3.34   0.000   0.200   0.000    0.00
   4.100   24.87  -12.22   -2.42   0.000   0.200   0.000    0.00
   4.150   25.42  -10.71   -3.19   0.000   0.200   0.000    0.00
   4.200   25.65   -9.77   -3.00   0.000   0.200   0.000    0.00
   4.250   25.33   -8.41   -3.01   0.000   0.200   0.000    0.00
   4.300   25.32   -7.68   -2.85   0.000   0.200   0.000    0.00
   4.350   25.22   -7.96   -2.77   0.000   0.200   0.000    0.00
   4.400   25.44  -10.84   -3.58   0.000   0.200   0.000    0.00
   4.450   25.78  -12.97   -3.43   0.000   0.200   0.000    0.00
   4.500   25.35  -10.25   -3.53   0.000   0.200   0.000    0.00
   4.550   25.35   -9.72   -3.83   0.000   0.200   0.000    0.00
   4.600   25.87  -10.52   -2.89   0.000   0.200   0.000    0.00
   4.650   25.80   -9.75   -2.75   0.000   0.200   0.000    0.00
   4.700   25.44  -10.80   -3.38   0.000   0.200   0.000    0.00
   4.750   25.70  -11.21   -2.70   0.000   0.200   0.000    0.00
   4.800   26.41  -10.19   -1.83   0.000   0.200   0.000    0.00
   4.850   26.77  -11.14   -1.56   0.000   0.200   0.000    0.00
   4.900   26.29  -10.64   -1.90   0.000   0.200   0.000    0.00
   4.950   25.98  -11.59   -2.19   0.000   0.200   0.000    0.00
   5.000   26.76  -12.44   -1.66   0.000   0.200   0.000    0.00
   5.050   26.43  -13.42   -0.94   0.000   0.200   0.000    0.00
   5.100   26.15  -12.07   -0.51   0.000   0.200   0.000    0.00
   5.150   25.44  -12.50   -1.22   0.000   0.200   0.000    0.00
   5.200   26.14  -12.69   -0.83   0.000   0.200   0.000    0.00
   5.250   25.60  -13.60   -0.96   0.000   0.200   0.000    0.00
   5.300   25.46  -12.67   -1.01   0.000   0.200   0.000    0.00
   5.350   25.95  -11.65   -1.55   0.000   0.200   0.000    0.00
   5.400   25.72  -10.92   -0.87   0.000   0.200   0.000    0.00
   5.450   26.58  -10.24   -0.38   0.000   0.200   0.000    0.00
   5.500   27.36   -9.37   -0.19   0.000   0.200   0.000    0.00
   5.550   26.22   -8.67   -1.21   0.000   0.200   0.000    0.00
   5.600   25.22  -12.30   -1.22   0.000   0.200   0.000    0.00
   5.650   25.08  -12.26   -0.82   0.000   0.200   0.000    0.00
   5.700   25.37  -10.85   -0.80   0.000   0.200   0.000    0.00
   5.750   26.63  -11.63   -0.01   0.000   0.200   0.000    0.00
   5.800   26.83  -10.10   -0.54   0.000   0.200   0.000    0.00
   5.850   26.03  -10.82   -1.18   0.000   0.200   0.000    0.00
   5.900   25.26  -10.98   -1.60   0.000   0.200   0.000    0.00
   5.950   25.61   -9.23   -0.65   0.000   0.200   0.000    0.00
   6.000   26.04  -12.12   -0.16   0.000   0.200   0.000    0.00
   6.050   26.31  -12.08    0.99   0.000   0.200   0.000    0.00
   6.100   26.41  -11.47    0.32   0.000   0.200   0.000    0.00
   6.150   25.52  -11.81    0.17   0.000   0.200   0.000    0.00
   6.200   25.35  -11.23    0.97   0.000   0.200   0.000    0.00
   6.250   25.15   -9.66    0.24   0.000   0.200   0.000    0.00
   6.300   25.83   -8.54   -0.06   0.000   0.200   0.000    0.00
   6.350   27.14   -6.83   -0.38   0.000   0.200   0.000    0.00
   6.400   27.58   -7.42    0.68   0.000   0.200   0.000    0.00
   6.450   27.51   -6.35    1.03   0.000   0.200   0.000    0.00
   6.500   26.14   -6.98    1.09   0.000   0.200   0.000    0.00
   6.550   26.16   -7.96    1.45   0.000   0.200   0.000    0.00
   6.600   26.45   -9.10    1.65   0.000   0.200   0.000    0.00
   6.650   27.37   -8.38    2.39   0.000   0.200   0.000    0.00
   6.700   27.75  -10.39    2.24   0.000   0.200   0.000    0.00
   6.750   27.65   -9.94    2.09   0.000   0.200   0.000    0.00
   6.800   27.77   -9.87    1.94   0.000   0.200   0.000    0.00
   6.850   27.34  -10.93    1.71   0.000   0.200   0.000    0.00
   6.900   27.52  -10.39    1.62   0.000   0.200   0.000    0.00
   6.950   27.44  -10.93    0.74   0.000   0.200   0.000    0.00
   7.000   27.43   -9.91    0.35   0.000   0.200   0.000    0.00
   7.050   27.29   -8.87   -0.70   0.000   0.200   0.000    0.00
   7.100   26.92  -11.19   -0.65   0.000   0.200   0.000    0.00
   7.150   26.19   -7.00    0.65   0.000   0.200   0.000    0.00
   7.200   26.07   -7.38    0.99   0.000   0.200   0.000    0.00
   7.250   26.55   -7.72    0.62   0.000   0.200   0.000    0.00
   7.300   26.80   -9.96    1.20   0.000   0.200   0.000    0.00
   7.350   26.51  -10.43    1.09   0.000   0.200   0.000    0.00
   7.400   24.91  -12.94    1.18   0.000   0.200   0.000    0.00
   7.450   24.66  -12.59    1.54   0.000   0.200   0.000    0.00
   7.500   24.81  -11.19    1.22   0.000   0.200   0.000    0.00
   7.550   24.39  -12.01    1.77   0.000   0.200   0.000    0.00
   7.600   23.96  -10.35    1.47   0.000   0.200   0.000    0.00
   7.650   23.66  -14.20    2.27   0.000   0.200   0.000    0.00
   7.700   23.31  -14.54    2.69   0.000   0.200   0.000    0.00
   7.750   23.13  -13.03    3.13   0.000   0.200   0.000    0.00
   7.800   23.49  -13.74    2.64   0.000   0.200   0.000    0.00
   7.850   22.76  -13.19    2.21   0.000   0.200   0.000    0.00
   7.900   22.35  -17.56    1.65   0.000   0.200   0.000    0.00
   7.950   22.65  -17.89    2.35   0.000   0.200   0.000    0.00
   8.000   23.53  -16.54    3.10   0.000   0.200   0.000    0.00
   8.050   22.92  -17.33    2.93   0.000   0.200   0.000    0.00
   8.100   22.20  -16.08    4.39   0.000   0.200   0.000    0.00
   8.150   21.81  -15.53    3.59   0.000   0.200   0.000    0.00
   8.200   21.71  -16.58    4.15   0.000   0.200   0.000    0.00
   8.250   22.15  -17.62    4.21   0.000   0.200   0.000    0.00
   8.300   23.63  -16.28    4.72   0.000   0.200   0.000    0.00
   8.350   23.32  -13.68    4.56   0.000   0.200   0.000    0.00
   8.400   23.08  -10.57    5.10   0.000   0.200   0.000    0.00
   8.450   22.59  -12.20    5.35   0.000   0.200   0.000    0.00
   8.500   23.37  -15.25    6.27   0.000   0.200   0.000    0.00
   8.550   22.92  -13.81    6.43   0.000   0.200   0.000    0.00
   8.600   22.74  -13.62    6.50   0.000   0.200   0.000    0.00
   8.650   22.81  -12.46    6.45   0.000   0.200   0.000    0.00
   8.700   23.26  -15.30    7.23   0.000   0.200   0.000    0.00
   8.750   23.00  -15.73    6.30   0.000   0.200   0.000    0.00
   8.800   22.86  -14.68    5.70   0.000   0.200   0.000    0.00
   8.850   22.85  -15.43    5.35   0.000   0.200   0.000    0.00
   8.900   23.28  -15.63    4.42   0.000   0.200   0.000    0.00
   8.950   24.02  -18.09    3.79   0.000   0.200   0.000    0.00
   9.000   23.74  -18.54    3.15   0.000   0.200   0.000    0.00
   9.050   24.18  -19.97    3.22   0.000   0.200   0.000    0.00
   9.100   23.65  -19.74    2.22   0.000   0.200   0.000    0.00
   9.150   23.68  -18.94    1.92   0.000   0.200   0.000    0.00
   9.200   23.48  -19.33    1.71   0.000   0.200   0.000    0.00
   9.250   23.69  -21.05   -0.09   0.000   0.200   0.000    0.00
   9.300   23.59  -22.54   -0.65   0.000   0.200   0.000    0.00
   9.350   22.94  -23.51   -0.48   0.000   0.200   0.000    0.00
   9.400   22.19  -24.11   -0.53   0.000   0.200   0.000    0.00
   9.450   22.60  -22.20    0.75   0.000   0.200   0.000    0.00
   9.500   22.44  -21.97    0.16   0.000   0.200   0.000    0.00
   9.550   21.95  -22.81   -0.31   0.000   0.200   0.000    0.00
   9.600   21.86  -23.56   -1.13   0.000   0.200   0.000    0.00
   9.650   21.81  -23.67   -1.16   0.000   0.200   0.000    0.00
   9.700   21.45  -20.75   -0.60   0.000   0.200   0.000    0.00
   9.750   21.36  -19.39   -0.44   0.000   0.200   0.000    0.00
   9.800   20.78  -17.17   -0.83   0.000   0.200   0.000    0.00
   9.850   20.06  -14.01   -1.05   0.000   0.200   0.000    0.00
   9.900   19.95  -15.92   -1.63   0.000   0.200   0.000    0.00
   9.950   19.66  -17.88   -1.53   0.000   0.200   0.000    0.00
  10.000   19.86  -21.82   -0.73   0.000   0.200   0.000    0.00
  10.050   20.37  -21.94   -0.63   0.000   0.200   0.000    0.00
  10.100   20.67  -23.39   -0.89   0.000   0.200   0.000    0.00
  10.150   20.85  -20.59   -0.95   0.000   0.200   0.000    0.00
  10.200   20.37  -22.06   -0.33   0.000   0.200   0.000    0.00
  10.250   20.47  -22.46   -0.72   0.000   0.200   0.000    0.00
  10.300   20.99  -18.58   -1.33   0.000   0.200   0.000    0.00
  10.350   20.61  -17.65   -2.14   0.000   0.200   0.000    0.00
  10.400   20.22  -16.06   -1.99   0.000   0.200   0.000    0.00
  10.450   20.27  -16.35   -1.20   0.000   0.200   0.000    0.00
  10.500   20.45  -15.59   -2.10   0.000   0.200   0.000    0.00
  10.550   20.18  -16.04   -1.98   0.000   0.200   0.000    0.00
  10.600   20.47  -20.75   -1.64   0.000   0.200   0.000    0.00
  10.650   19.68  -17.92   -1.94   0.000   0.200   0.000    0.00
  10.700   19.75  -12.31   -1.81   0.000   0.200   0.000    0.00
  10.750   19.47  -10.93   -0.79   0.000   0.200   0.000    0.00
  10.800   19.01  -12.00   -1.06   0.000   0.200   0.000    0.00
  10.850   18.75  -16.24   -1.42   0.000   0.200   0.000    0.00
  10.900   19.40  -17.34   -0.50   0.000   0.200   0.000    0.00
  10.950   19.67  -16.95   -0.97   0.000   0.200   0.000    0.00
  11.000   19.51  -18.77   -0.97   0.000   0.200   0.000    0.00
  11.050   19.75  -16.76   -0.38   0.000   0.200   0.000    0.00
  11.100   19.05  -13.43   -0.36   0.000   0.200   0.000    0.00
  11.150   19.82  -12.40   -0.50   0.000   0.200   0.000    0.00
  11.200   19.75  -16.40   -0.88   0.000   0.200   0.000    0.00
  11.250   19.85  -18.43   -1.79   0.000   0.200   0.000    0.00
  11.300   18.41  -17.89   -2.07   0.000   0.200   0.000    0.00
  11.350   17.81  -15.10   -1.95   0.000   0.200   0.000    0.00
  11.400   18.04  -19.76   -1.82   0.000   0.200   0.000    0.00
  11.450   17.86  -19.98   -1.95   0.000   0.200   0.000    0.00
  11.500   17.31  -21.23   -1.87   0.000   0.200   0.000    0.00
  11.550   16.56  -20.39   -2.65   0.000   0.200   0.000    0.00
  11.600   16.77  -15.86   -2.28   0.000   0.200   0.000    0.00
  11.650   16.93  -17.26   -3.24   0.000   0.200   0.000    0.00
  11.700   17.43  -13.18   -3.58   0.000   0.200   0.000    0.00
  11.750   18.49  -12.20   -3.26   0.000   0.200   0.000    0.00
  11.800   18.92  -15.13   -4.02   0.000   0.200   0.000    0.00
  11.850   19.70  -19.35   -4.17   0.000   0.200   0.000    0.00
  11.900   19.52  -20.81   -4.88   0.000   0.200   0.000    0.00
  11.950   19.03  -18.37   -4.41   0.000   0.200   0.000    0.00
  12.000   19.09  -17.63   -4.84   0.000   0.200   0.000    0.00
  12.050   19.32  -20.01   -5.16   0.000   0.200   0.000    0.00
  12.100   19.39  -17.94   -5.35   0.000   0.200   0.000    0.00
  12.150   18.52  -20.21   -4.50   0.000   0.200   0.000    0.00
  12.200   18.31  -20.56   -4.85   0.000   0.200   0.000    0.00
  12.250   18.22  -17.12   -4.63   0.000   0.200   0.000    0.00
  12.300   17.86  -16.37   -4.76   0.000   0.200   0.000    0.00
  12.350   18.78  -18.52   -4.93   0.000   0.200   0.000    0.00
  12.400   18.76  -17.60   -5.06   0.000   0.200   0.000    0.00
  12.450   19.26  -18.35   -4.92   0.000   0.200   0.000    0.00
  12.500   19.84  -16.81   -5.55   0.000   0.200   0.000    0.00
  12.550   19.39  -15.31   -6.03   0.000   0.200   0.000    0.00
  12.600   19.04  -15.17   -5.67   0.000   0.200   0.000    0.00
  12.650   19.61  -16.16   -4.78   0.000   0.200   0.000    0.00
  12.700   19.44  -16.00   -4.99   0.000   0.200   0.000    0.00
  12.750   20.72  -13.68   -6.14   0.000   0.200   0.000    0.00
  12.800   20.52  -11.42   -6.23   0.000   0.200   0.000    0.00
  12.850   20.20  -11.35   -4.54   0.000   0.200   0.000    0.00
  12.900   20.27   -6.84   -4.72   0.000   0.200   0.000    0.00
  12.950   20.03   -4.90   -3.68   0.000   0.200   0.000    0.00
  13.000   19.61   -3.10   -4.73   0.000   0.200   0.000    0.00
  13.050   18.89   -2.40   -4.22   0.000   0.200   0.000    0.00
  13.100   18.65   -5.20   -4.61   0.000   0.200   0.000    0.00
  13.150   18.68   -7.02   -4.29   0.000   0.200   0.000    0.00
  13.200   20.19   -8.92   -4.64   0.000   0.200   0.000    0.00
  13.250   19.43   -8.27   -4.78   0.000   0.200   0.000    0.00
  13.300   19.10   -5.18   -4.15   0.000   0.200   0.000    0.00
  13.350   20.07   -4.78   -4.03   0.000   0.200   0.000    0.00
  13.400   21.37   -3.12   -2.88   0.000   0.200   0.000    0.00
  13.450   20.13   -4.77   -2.18   0.000   0.200   0.000    0.00
  13.500   19.16   -7.15   -1.80   0.000   0.200   0.000    0.00
  13.550   19.46   -4.86   -1.97   0.000   0.200   0.000    0.00
  13.600   19.41   -4.84   -1.93   0.000   0.200   0.000    0.00
  13.650   20.28   -5.30   -1.39   0.000   0.200   0.000    0.00
  13.700   20.75   -4.31   -2.38   0.000   0.200   0.000    0.00
  13.750   21.07   -2.92   -2.83   0.000   0.200   0.000    0.00
  13.800   20.36   -4.13   -1.45   0.000   0.200   0.000    0.00
  13.850   19.81   -1.19   -3.18   0.000   0.200   0.000    0.00
  13.900   19.90    1.22   -3.62   0.000   0.200   0.000    0.00
  13.950   20.70    0.47   -4.37   0.000   0.200   0.000    0.00
  14.000   21.75   -1.07   -4.88   0.000   0.200   0.000    0.00
  14.050   21.91   -0.65   -4.39   0.000   0.200   0.000    0.00
  14.100   20.99    2.35   -4.24   0.000   0.200   0.000    0.00
  14.150   20.08    1.05   -2.89   0.000   0.200   0.000    0.00
  14.200   19.50   -0.05   -2.51   0.000   0.200   0.000    0.00
  14.250   19.32   -4.27   -2.43   0.000   0.200   0.000    0.00
  14.300   20.39   -3.30   -2.79   0.000   0.200   0.000    0.00
  14.350   20.83   -4.12   -1.89   0.000   0.200   0.000    0.00
  14.400   19.83   -0.55   -1.35   0.000   0.200   0.000    0.00
  14.450   19.52   -1.10   -0.67   0.000   0.200   0.000    0.00
  14.500   20.02    2.55    0.64   0.000   0.200   0.000    0.00
  14.550   19.98    3.09    0.30   0.000   0.200   0.000    0.00
  14.600   20.18    2.57   -0.33   0.000   0.200   0.000    0.00
  14.650   20.71    3.37   -0.84   0.000   0.200   0.000    0.00
  14.700   20.93    5.44   -1.51   0.000   0.200   0.000    0.00
  14.750   20.07    4.55   -2.03   0.000   0.200   0.000    0.00
  14.800   19.22    4.94   -1.56   0.000   0.200   0.000    0.00
  14.850   18.89    5.74   -0.99   0.000   0.200   0.000    0.00
  14.900   19.17    6.83   -0.82   0.000   0.200   0.000    0.00
  14.950   20.05    9.76   -1.56   0.000   0.200   0.000    0.00
  15.000   19.77    8.81   -2.05   0.000   0.200   0.000    0.00
  15.050   19.70   10.03   -1.36   0.000   0.200   0.000    0.00
  15.100   20.20   10.70   -1.97   0.000   0.200   0.000    0.00
  15.150   19.93   10.31   -2.15   0.000   0.200   0.000    0.00
  15.200   19.78    6.74   -0.68   0.000   0.200   0.000    0.00
  15.250   19.86    4.01   -0.61   0.000   0.200   0.000    0.00
  15.300   19.78    4.58   -0.94   0.000   0.200   0.000    0.00
  15.350   20.87    7.14   -2.42   0.000   0.200   0.000    0.00
  15.400   20.65    9.57   -2.70   0.000   0.200   0.000    0.00
  15.450   21.70    7.34   -3.22   0.000   0.200   0.000    0.00
  15.500   21.12    4.78   -3.65   0.000   0.200   0.000    0.00
  15.550   21.09    4.13   -4.68   0.000   0.200   0.000    0.00
  15.600   20.81    0.36   -4.65   0.000   0.200   0.000    0.00
  15.650   20.97    1.06   -4.76   0.000   0.200   0.000    0.00
  15.700   21.28    2.72   -4.86   0.000   0.200   0.000    0.00
  15.750   21.21    1.34   -5.24   0.000   0.200   0.000    0.00
  15.800   21.36    2.34   -5.73   0.000   0.200   0.000    0.00
  15.850   20.91    1.22   -3.87   0.000   0.200   0.000    0.00
  15.900   21.16    0.82   -2.85   0.000   0.200   0.000    0.00
  15.950   20.78    3.00   -1.89   0.000   0.200   0.000    0.00
  16.000   20.30    0.31   -2.26   0.000   0.200   0.000    0.00
  16.050   20.63    0.11   -2.25   0.000   0.200   0.000    0.00
  16.100   20.11   -0.64   -2.07   0.000   0.200   0.000    0.00
  16.150   20.16    1.17   -3.10   0.000   0.200   0.000    0.00
  16.200   20.34    2.05   -2.67   0.000   0.200   0.000    0.00
  16.250   20.18    3.46   -3.43   0.000   0.200   0.000    0.00
  16.300   19.16    4.21   -3.29   0.000   0.200   0.000    0.00
  16.350   18.62    5.56   -3.47   0.000   0.200   0.000    0.00
  16.400   19.02    4.30   -3.78   0.000   0.200   0.000    0.00
  16.450   18.88    4.42   -3.64   0.000   0.200   0.000    0.00
  16.500   18.74    3.89   -4.00   0.000   0.200   0.000    0.00
  16.550   17.96    4.37   -5.13   0.000   0.200   0.000    0.00
  16.600   17.73    5.87   -4.81   0.000   0.200   0.000    0.00
  16.650   18.19    4.39   -4.35   0.000   0.200   0.000    0.00
  16.700   18.31    3.65   -4.53   0.000   0.200   0.000    0.00
  16.750   18.34    1.57   -2.70   0.000   0.200   0.000    0.00
  16.800   17.89    5.56   -3.18   0.000   0.200   0.000    0.00
  16.850   17.75    5.19   -3.90   0.000   0.200   0.000    0.00
  16.900   18.26    3.32   -2.42   0.000   0.200   0.000    0.00
  16.950   18.61    4.20   -2.80   0.000   0.200   0.000    0.00
  17.000   19.24    5.84   -3.53   0.000   0.200   0.000    0.00
  17.050   19.01    6.36   -3.11   0.000   0.200   0.000    0.00
  17.100   19.56    5.76   -2.72   0.000   0.200   0.000    0.00
  17.150   19.20    3.51   -2.33   0.000   0.200   0.000    0.00
  17.200   19.01    4.31   -2.26   0.000   0.200   0.000    0.00
  17.250   19.43    3.84   -2.55   0.000   0.200   0.000    0.00
  17.300   20.24    2.93   -3.21   0.000   0.200   0.000    0.00
  17.350   19.88    1.54   -3.08   0.000   0.200   0.000    0.00
  17.400   20.05   -1.30   -1.45   0.000   0.200   0.000    0.00
  17.450   19.74   -1.07   -1.16   0.000   0.200   0.000    0.00
  17.500   20.12   -1.81   -1.97   0.000   0.200   0.000    0.00
  17.550   20.40   -1.88   -1.86   0.000   0.200   0.000    0.00
  17.600   20.54   -2.81   -1.37   0.000   0.200   0.000    0.00
  17.650   20.05   -3.58   -1.48   0.000   0.200   0.000    0.00
  17.700   20.26   -1.94   -1.57   0.000   0.200   0.000    0.00
  17.750   19.68    0.67   -1.83   0.000   0.200   0.000    0.00
  17.800   19.04   -0.53   -1.93   0.000   0.200   0.000    0.00
  17.850   18.34    1.64   -1.99   0.000   0.200   0.000    0.00
  17.900   18.99   -0.51   -3.11   0.000   0.200   0.000    0.00
  17.950   19.68    0.55   -3.21   0.000   0.200   0.000    0.00
  18.000   20.00    1.32   -3.02   0.000   0.200   0.000    0.00
  18.050   19.41    2.19   -2.61   0.000   0.200   0.000    0.00
  18.100   20.25   -0.83   -2.14   0.000   0.200   0.000    0.00
  18.150   20.25   -1.39   -2.71   0.000   0.200   0.000    0.00
  18.200   20.19    0.94   -1.90   0.000   0.200   0.000    0.00
  18.250   20.53    1.06   -2.47   0.000   0.200   0.000    0.00
  18.300   21.05    3.26   -2.71   0.000   0.200   0.000    0.00
  18.350   21.62    4.09   -2.12   0.000   0.200   0.000    0.00
  18.400   21.99    3.80   -1.90   0.000   0.200   0.000    0.00
  18.450   21.52    1.42   -0.87   0.000   0.200   0.000    0.00
  18.500   20.20   -0.03   -0.26   0.000   0.200   0.000    0.00
  18.550   19.88   -3.04   -0.45   0.000   0.200   0.000    0.00
  18.600   19.42   -6.40   -0.02   0.000   0.200   0.000    0.00
  18.650   18.75   -6.12    0.04   0.000   0.200   0.000    0.00
  18.700   18.96   -5.57   -1.38   0.000   0.200   0.000    0.00
  18.750   18.87   -6.30   -2.40   0.000   0.200   0.000    0.00
  18.800   19.17   -6.44   -2.60   0.000   0.200   0.000    0.00
  18.850   19.31   -6.50   -2.48   0.000   0.200   0.000    0.00
  18.900   19.50   -6.49   -2.69   0.000   0.200   0.000    0.00
  18.950   18.50   -5.62   -3.13   0.000   0.200   0.000    0.00
  19.000   18.10   -5.07   -1.07   0.000   0.200   0.000    0.00
  19.050   18.72   -5.12   -0.67   0.000   0.200   0.000    0.00
  19.100   17.68   -7.42   -0.98   0.000   0.200   0.000    0.00
  19.150   17.61   -8.10   -0.55   0.000   0.200   0.000    0.00
  19.200   17.02   -6.37   -0.51   0.000   0.200   0.000    0.00
  19.250   17.29   -6.02    0.02   0.000   0.200   0.000    0.00
  19.300   17.01   -8.27   -0.72   0.000   0.200   0.000    0.00
  19.350   16.54   -7.87   -0.58   0.000   0.200   0.000    0.00
  19.400   17.35   -6.08   -0.13   0.000   0.200   0.000    0.00
  19.450   18.04   -2.65    0.19   0.000   0.200   0.000    0.00
  19.500   17.99   -5.06    0.22   0.000   0.200   0.000    0.00
  19.550   18.78   -6.46   -0.36   0.000   0.200   0.000    0.00
  19.600   18.17   -5.67   -0.72   0.000   0.200   0.000    0.00
  19.650   16.98   -5.22    0.01   0.000   0.200   0.000    0.00
  19.700   16.94   -7.36   -0.51   0.000   0.200   0.000    0.00
  19.750   17.69   -9.29   -0.54   0.000   0.200   0.000    0.00
  19.800   17.77   -9.85   -0.48   0.000   0.200   0.000    0.00
  19.850   17.88   -8.10   -1.09   0.000   0.200   0.000    0.00
  19.900   17.49   -7.23   -0.98   0.000   0.200   0.000    0.00
  19.950   17.23   -7.59    0.02   0.000   0.200   0.000    0.00
  20.000   16.74   -8.14    0.14   0.000   0.200   0.000    0.00
  20.050   17.61   -5.94   -0.23   0.000   0.200   0.000    0.00
  20.100   17.67   -7.68   -0.77   0.000   0.200   0.000    0.00
  20.150   16.42   -8.23   -0.53   0.000   0.200   0.000    0.00
  20.200   16.54   -6.95   -0.98   0.000   0.200   0.000    0.00
  20.250   16.92   -5.78   -0.87   0.000   0.200   0.000    0.00
  20.300   18.34   -6.86   -1.26   0.000   0.200   0.000    0.00
  20.350   18.55   -7.90   -1.52   0.000   0.200   0.000    0.00
  20.400   17.97   -6.33   -1.20   0.000   0.200   0.000    0.00
  20.450   18.14   -5.90   -0.37   0.000   0.200   0.000    0.00
  20.500   18.22   -2.39   -0.36   0.000   0.200   0.000    0.00
  20.550   18.17    0.31   -1.30   0.000   0.200   0.000    0.00
  20.600   17.76   -3.25   -1.06   0.000   0.200   0.000    0.00
  20.650   17.01   -3.43   -0.66   0.000   0.200   0.000    0.00
  20.700   16.97   -2.91   -0.11   0.000   0.200   0.000    0.00
  20.750   16.47   -4.09    0.13   0.000   0.200   0.000    0.00
  20.800   17.10   -5.64   -0.29   0.000   0.200   0.000    0.00
  20.850   17.68   -4.93   -0.29   0.000   0.200   0.000    0.00
  20.900   18.23   -3.95   -0.86   0.000   0.200   0.000    0.00
  20.950   18.69   -5.97   -0.09   0.000   0.200   0.000    0.00
  21.000   18.91   -5.95    0.30   0.000   0.200   0.000    0.00
  21.050   17.71   -5.00    0.56   0.000   0.200   0.000    0.00
  21.100   17.77   -7.04   -0.35   0.000   0.200   0.000    0.00
  21.150   17.39   -5.09    0.67   0.000   0.200   0.000    0.00
  21.200   17.06   -4.27    0.36   0.000   0.200   0.000    0.00
  21.250   16.80   -4.00    1.21   0.000   0.200   0.000    0.00
  21.300   16.30   -1.64    2.22   0.000   0.200   0.000    0.00
  21.350   16.61   -0.97    2.06   0.000   0.200   0.000    0.00
  21.400   16.55   -2.96    2.40   0.000   0.200   0.000    0.00
  21.450   16.48   -2.63    1.20   0.000   0.200   0.000    0.00
  21.500   16.68   -4.40    1.25   0.000   0.200   0.000    0.00
  21.550   15.72   -6.63    1.80   0.000   0.200   0.000    0.00
  21.600   16.30   -1.07    1.70   0.000   0.200   0.000    0.00
  21.650   15.47   -2.29    2.32   0.000   0.200   0.000    0.00
  21.700   15.45  -10.29    2.27   0.000   0.200   0.000    0.00
  21.750   16.67  -11.80    1.83   0.000   0.200   0.000    0.00
  21.800   16.17  -11.63    1.16   0.000   0.200   0.000    0.00
  21.850   15.96   -8.77    1.33   0.000   0.200   0.000    0.00
  21.900   16.00   -7.93    2.45   0.000   0.200   0.000    0.00
  21.950   16.49   -9.13    2.75   0.000   0.200   0.000    0.00
  22.000   17.10   -7.36    2.08   0.000   0.200   0.000    0.00
  22.050   16.66   -8.09    1.35   0.000   0.200   0.000    0.00
  22.100   16.73   -7.44    1.27   0.000   0.200   0.000    0.00
  22.150   16.85   -8.61    2.31   0.000   0.200   0.000    0.00
  22.200   17.16   -7.46    1.71   0.000   0.200   0.000    0.00
  22.250   16.51   -4.15    2.07   0.000   0.200   0.000    0.00
  22.300   16.27   -3.99    1.75   0.000   0.200   0.000    0.00
  22.350   16.66   -3.19    1.57   0.000   0.200   0.000    0.00
  22.400   17.01   -3.19    1.96   0.000   0.200   0.000    0.00
  22.450   17.99   -1.90    1.90   0.000   0.200   0.000    0.00
  22.500   18.75   -2.31    2.16   0.000   0.200   0.000    0.00
  22.550   18.77   -2.78    2.57   0.000   0.200   0.000    0.00
  22.600   18.88   -3.79    2.78   0.000   0.200   0.000    0.00
  22.650   20.06   -2.92    1.98   0.000   0.200   0.000    0.00
  22.700   19.86   -3.30    2.82   0.000   0.200   0.000    0.00