! This hub-height wind-speed file was generated by TurbSim (from OpenFAST--128-NOTFOUND) on 04-Nov-2023 at 13:31:50.
!
! The requested statistics for this data were:
!    Mean Total Wind Speed =   20.000 m/s
!    Turbulence Intensity  =   14.420%
!
!   Time  HorSpd  WndDir  VerSpd  HorShr  VerShr  LnVShr  GstSpd
!  (sec)   (m/s)   (deg)   (m/s)     (-)     (-)     (-)   (m/s)
   0.000   18.76   -8.77    3.78   0.000   0.200   0.000    0.00
   0.050   18.41  -12.41    2.83   0.000   0.200   0.000    0.00
   0.100   18.65   -9.95    3.96   0.000   0.200   0.000    0.00
   0.150   19.08   -8.89    3.25   0.000   0.200   0.000    0.00
   0.200   19.10  -10.35    2.44   0.000   0.200   0.000    0.00
   0.250   17.90  -11.61    2.82   0.000   0.200   0.000    0.00
   0.300   18.37  -10.31    2.30   0.000   0.200   0.000    0.00
   0.350   18.94  -12.72    1.48   0.000   0.200   0.000    0.00
   0.400   18.67  -12.03    1.19   0.000   0.200   0.000    0.00
   0.450   18.95  -10.86    1.18   0.000   0.200   0.000    0.00
   0.500   20.02   -9.96    2.19   0.000   0.200   0.000    0.00
   0.550   20.42   -9.94    1.91   0.000   0.200   0.000    0.00
   0.600   19.75   -8.47    1.06   0.000   0.200   0.000    0.00
   0.650   19.83   -8.45    0.99   0.000   0.200   0.000    0.00
   0.700   19.50   -7.85   -0.75   0.000   0.200   0.000    0.00
   0.750   20.97   -7.64   -0.39   0.000   0.200   0.000    0.00
   0.800   21.06   -7.28   -0.11   0.000   0.200   0.000    0.00
   0.850   21.22   -7.20   -0.59   0.000   0.200   0.000    0.00
   0.900   20.27   -9.78   -0.01   0.000   0.200   0.000    0.00
   0.950   20.41   -8.95   -0.20   0.000   0.200   0.000    0.00
   1.000   20.31   -9.73   -0.52   0.000   0.200   0.000    0.00
   1.050   19.25   -8.49    0.55   0.000   0.200   0.000    0.00
   1.100   18.47   -5.53    1.51   0.000   0.200   0.000    0.00
   1.150   18.65   -9.52    2.49   0.000   0.200   0.000    0.00
   1.200   18.16  -13.08    1.77   0.000   0.200   0.000    0.00
   1.250   18.46  -12.95    1.85   0.000   0.200   0.000    0.00
   1.300   17.43  -13.73    2.04   0.000   0.200   0.000    0.00
   1.350   17.16  -13.25    2.50   0.000   0.200   0.000    0.00
   1.400   16.70  -10.93    2.24   0.000   0.200   0.000    0.00
   1.450   18.18   -6.63    2.08   0.000   0.200   0.000    0.00
   1.500   18.79   -8.92    2.24   0.000   0.200   0.000    0.00
   1.550   18.86  -10.37    3.02   0.000   0.200   0.000    0.00
   1.600   19.61  -10.47    2.63   0.000   0.200   0.000    0.00
   1.650   18.86  -13.71    2.55   0.000   0.200   0.000    0.00
   1.700   18.38  -14.33    2.63   0.000   0.200   0.000    0.00
   1.750   17.80  -11.92    2.33   0.000   0.200   0.000    0.00
   1.800   18.63   -9.32    2.41   0.000   0.200   0.000    0.00
   1.850   18.58   -7.90    1.96   0.000   0.200   0.000    0.00
   1.900   18.47   -5.57    1.81   0.000   0.200   0.000    0.00
   1.950   18.90   -8.74    2.58   0.000   0.200   0.000    0.00
   2.000   19.36   -7.47    2.61   0.000   0.200   0.000    0.00
   2.050   19.31   -4.30    2.26   0.000   0.200   0.000    0.00
   2.100   18.00   -2.28    1.31   0.000   0.200   0.000    0.00
   2.150   18.98   -3.80    0.38   0.000   0.200   0.000    0.00
   2.200   19.34   -4.34    1.16   0.000   0.200   0.000    0.00
   2.250   19.87   -4.29    1.37   0.000   0.200   0.000    0.00
   2.300   19.72   -1.49    0.87   0.000   0.200   0.000    0.00
   2.350   19.87   -3.25    0.90   0.000   0.200   0.000    0.00
   2.400   19.11   -2.52    1.17   0.000   0.200   0.000    0.00
   2.450   18.70   -2.25    0.28   0.000   0.200   0.000    0.00
   2.500   18.97   -2.86   -0.05   0.000   0.200   0.000    0.00
   2.550   19.76   -2.33    0.42   0.000   0.200   0.000    0.00
   2.600   19.60   -2.73   -0.89   0.000   0.200   0.000    0.00
   2.650   19.28   -3.35   -0.37   0.000   0.200   0.000    0.00
   2.700   18.98    1.01    0.07   0.000   0.200   0.000    0.00
   2.750   19.24    2.87   -0.08   0.000   0.200   0.000    0.00
   2.800   18.59    3.92   -1.47   0.000   0.200   0.000    0.00
   2.850   18.90    3.13   -2.03   0.000   0.200   0.000    0.00
   2.900   17.23    4.16   -1.78   0.000   0.200   0.000    0.00
   2.950   17.88    4.13   -1.54   0.000   0.200   0.000    0.00
   3.000   18.92    2.46   -0.33   0.000   0.200   0.000    0.00
   3.050   18.31    3.72   -0.78   0.000   0.200   0.000    0.00
   3.100   18.44    6.44   -1.16   0.000   0.200   0.000    0.00
   3.150   17.44    2.24   -1.18   0.000   0.200   0.000    0.00
   3.200   18.09   -0.35   -0.31   0.000   0.200   0.000    0.00
   3.250   18.86    5.03    0.00   0.000   0.200   0.000    0.00
   3.300   17.93    1.76    0.18   0.000   0.200   0.000    0.00
   3.350   16.98    0.84    1.48   0.000   0.200   0.000    0.00
   3.400   16.98    1.79    1.65   0.000   0.200   0.000    0.00
   3.450   16.78    5.58    1.39   0.000   0.200   0.000    0.00
   3.500   17.19    7.38    0.29   0.000   0.200   0.000    0.00
   3.550   17.11    8.57   -1.04   0.000   0.200   0.000    0.00
   3.600   17.49    5.62   -0.62   0.000   0.200   0.000    0.00
   3.650   17.48    1.73   -0.04   0.000   0.200   0.000    0.00
   3.700   17.45    5.26   -0.22   0.000   0.200   0.000    0.00
   3.750   17.65    5.30   -0.22   0.000   0.200   0.000    0.00
   3.800   18.28    3.80   -0.41   0.000   0.200   0.000    0.00
   3.850   18.60    4.90   -0.33   0.000   0.200   0.000    0.00
   3.900   18.48    4.72    0.09   0.000   0.200   0.000    0.00
   3.950   19.44    2.49    0.62   0.000   0.200   0.000    0.00
   4.000   18.64    0.43    0.81   0.000   0.200   0.000    0.00
   4.050   18.11   -0.80    0.61   0.000   0.200   0.000    0.00
   4.100   17.12    0.40    0.74   0.000   0.200   0.000    0.00
   4.150   16.56    1.03    1.52   0.000   0.200   0.000    0.00
   4.200   16.20    3.62    0.18   0.000   0.200   0.000    0.00
   4.250   16.65    4.01    0.89   0.000   0.200   0.000    0.00
   4.300   16.30    2.67    0.56   0.000   0.200   0.000    0.00
   4.350   15.51    0.94    2.57   0.000   0.200   0.000    0.00
   4.400   16.33    1.69    2.66   0.000   0.200   0.000    0.00
   4.450   15.87    1.24    3.04   0.000   0.200   0.000    0.00
   4.500   15.95   -1.06    3.28   0.000   0.200   0.000    0.00
   4.550   16.40   -3.19    4.19   0.000   0.200   0.000    0.00
   4.600   15.81   -3.80    2.85   0.000   0.200   0.000    0.00
   4.650   16.80   -4.73    2.90   0.000   0.200   0.000    0.00
   4.700   17.36   -4.18    2.34   0.000   0.200   0.000    0.00
   4.750   17.91   -2.17    1.95   0.000   0.200   0.000    0.00
   4.800   18.10   -0.11    1.44   0.000   0.200   0.000    0.00
   4.850   16.83    0.32    1.85   0.000   0.200   0.000    0.00
   4.900   16.73    0.24    0.57   0.000   0.200   0.000    0.00
   4.950   17.27   -1.96    0.78   0.000   0.200   0.000    0.00
   5.000   16.75   -2.26    0.35   0.000   0.200   0.000    0.00
   5.050   15.77   -1.37    0.39   0.000   0.200   0.000    0.00
   5.100   15.55   -2.62    0.09   0.000   0.200   0.000    0.00
   5.150   14.71   -2.35   -0.53   0.000   0.200   0.000    0.00
   5.200   15.14   -4.64   -0.12   0.000   0.200   0.000    0.00
   5.250   14.73   -2.87   -0.93   0.000   0.200   0.000    0.00
   5.300   14.59   -4.49   -1.84   0.000   0.200   0.000    0.00
   5.350   13.53   -3.16   -2.30   0.000   0.200   0.000    0.00
   5.400   14.34   -5.60   -1.41   0.000   0.200   0.000    0.00
   5.450   14.30   -5.07   -2.17   0.000   0.200   0.000    0.00
   5.500   13.96   -5.72   -2.01   0.000   0.200   0.000    0.00
   5.550   14.00   -7.66   -1.49   0.000   0.200   0.000    0.00
   5.600   13.48   -7.49   -1.02   0.000   0.200   0.000    0.00
   5.650   12.86   -4.95   -0.79   0.000   0.200   0.000    0.00
   5.700   13.28   -0.24   -1.04   0.000   0.200   0.000    0.00
   5.750   13.21    2.50   -1.48   0.000   0.200   0.000    0.00
   5.800   13.38   -0.77   -0.86   0.000   0.200   0.000    0.00
   5.850   14.20   -4.21   -1.51   0.000   0.200   0.000    0.00
   5.900   14.35   -6.03   -1.39   0.000   0.200   0.000    0.00
   5.950   13.98   -9.58   -0.97   0.000   0.200   0.000    0.00
   6.000   12.98  -10.67   -0.54   0.000   0.200   0.000    0.00
   6.050   12.54  -11.17   -0.72   0.000   0.200   0.000    0.00
   6.100   13.16  -13.65   -0.37   0.000   0.200   0.000    0.00
   6.150   13.18   -7.19   -0.75   0.000   0.200   0.000    0.00
   6.200   13.17   -4.55   -1.20   0.000   0.200   0.000    0.00
   6.250   13.51   -2.25   -0.50   0.000   0.200   0.000    0.00
   6.300   13.80   -1.80    0.57   0.000   0.200   0.000    0.00
   6.350   14.10   -2.95   -0.95   0.000   0.200   0.000    0.00
   6.400   13.90   -0.86   -1.62   0.000   0.200   0.000    0.00
   6.450   15.21   -3.66   -1.60   0.000   0.200   0.000    0.00
   6.500   14.86   -8.34   -2.13   0.000   0.200   0.000    0.00
   6.550   14.58   -9.61   -1.86   0.000   0.200   0.000    0.00
   6.600   14.28  -13.35   -1.78   0.000   0.200   0.000    0.00
   6.650   13.58  -13.60   -0.44   0.000   0.200   0.000    0.00
   6.700   13.86  -15.10   -0.41   0.000   0.200   0.000    0.00
   6.750   14.38  -19.36   -0.17   0.000   0.200   0.000    0.00
   6.800   14.73  -17.72    0.15   0.000   0.200   0.000    0.00
   6.850   14.39  -20.20    0.00   0.000   0.200   0.000    0.00
   6.900   13.63  -20.10    0.46   0.000   0.200   0.000    0.00
   6.950   13.43  -19.04   -0.30   0.000   0.200   0.000    0.00
   7.000   13.60  -17.40    0.44   0.000   0.200   0.000    0.00
   7.050   12.75  -15.63    0.66   0.000   0.200   0.000    0.00
   7.100   13.00  -12.63   -0.03   0.000   0.200   0.000    0.00
   7.150   13.62  -11.22   -1.02   0.000   0.200   0.000    0.00
   7.200   14.21  -14.50   -1.11   0.000   0.200   0.000    0.00
   7.250   14.56  -15.25   -0.39   0.000   0.200   0.000    0.00
   7.300   13.91  -17.07   -0.76   0.000   0.200   0.000    0.00
   7.350   14.58  -14.23   -1.05   0.000   0.200   0.000    0.00
   7.400   15.01  -12.03   -0.15   0.000   0.200   0.000    0.00
   7.450   15.36  -16.61   -0.20   0.000   0.200   0.000    0.00
   7.500   15.50  -13.30   -0.58   0.000   0.200   0.000    0.00
   7.550   16.31  -11.08   -0.52   0.000   0.200   0.000    0.00
   7.600   16.00  -13.00    0.35   0.000   0.200   0.000    0.00
   7.650   15.68  -13.88    0.24   0.000   0.200   0.000    0.00
   7.700   16.04  -14.24    0.87   0.000   0.200   0.000    0.00
   7.750   15.88  -14.13    1.35   0.000   0.200   0.000    0.00
   7.800   15.48  -11.99    1.51   0.000   0.200   0.000    0.00
   7.850   14.61  -10.71    1.90   0.000   0.200   0.000    0.00
   7.900   14.14   -9.60    1.74   0.000   0.200   0.000    0.00
   7.950   14.65   -8.20    1.89   0.000   0.200   0.000    0.00
   8.000   14.72   -4.88    2.38   0.000   0.200   0.000    0.00
   8.050   13.98   -8.00    2.52   0.000   0.200   0.000    0.00
   8.100   14.06   -7.95    2.53   0.000   0.200   0.000    0.00
   8.150   13.49   -6.23    3.02   0.000   0.200   0.000    0.00
   8.200   13.38   -6.70    1.98   0.000   0.200   0.000    0.00
   8.250   13.52   -5.61    1.49   0.000   0.200   0.000    0.00
   8.300   13.13   -6.86    0.49   0.000   0.200   0.000    0.00
   8.350   12.67   -9.89    1.79   0.000   0.200   0.000    0.00
   8.400   12.77  -10.54    1.70   0.000   0.200   0.000    0.00
   8.450   12.92  -12.37    1.16   0.000   0.200   0.000    0.00
   8.500   12.66   -9.93    1.30   0.000   0.200   0.000    0.00
   8.550   12.49  -13.76    0.75   0.000   0.200   0.000    0.00
   8.600   12.86  -11.76    1.35   0.000   0.200   0.000    0.00
   8.650   13.34  -12.32    0.78   0.000   0.200   0.000    0.00
   8.700   14.03  -12.81    1.15   0.000   0.200   0.000    0.00
   8.750   14.37  -12.35    2.14   0.000   0.200   0.000    0.00
   8.800   14.28  -10.66    2.50   0.000   0.200   0.000    0.00
   8.850   14.02  -13.69    3.29   0.000   0.200   0.000    0.00
   8.900   14.08  -13.10    3.35   0.000   0.200   0.000    0.00
   8.950   14.45  -11.19    2.87   0.000   0.200   0.000    0.00
   9.000   14.93  -13.82    2.71   0.000   0.200   0.000    0.00
   9.050   15.00  -15.05    3.52   0.000   0.200   0.000    0.00
   9.100   14.47  -14.78    3.44   0.000   0.200   0.000    0.00
   9.150   14.01  -13.91    3.21   0.000   0.200   0.000    0.00
   9.200   14.22   -9.72    3.40   0.000   0.200   0.000    0.00
   9.250   13.72   -5.23    3.37   0.000   0.200   0.000    0.00
   9.300   13.57   -2.83    2.75   0.000   0.200   0.000    0.00
   9.350   13.58   -2.28    2.41   0.000   0.200   0.000    0.00
   9.400   14.07   -0.39    2.41   0.000   0.200   0.000    0.00
   9.450   14.46   -3.55    1.27   0.000   0.200   0.000    0.00
   9.500   14.66   -5.25    1.93   0.000   0.200   0.000    0.00
   9.550   14.27   -7.32    1.69   0.000   0.200   0.000    0.00
   9.600   14.39   -3.84    1.60   0.000   0.200   0.000    0.00
   9.650   15.17   -2.12    1.42   0.000   0.200   0.000    0.00
   9.700   15.54   -0.45    1.28   0.000   0.200   0.000    0.00
   9.750   15.58   -4.71    1.56   0.000   0.200   0.000    0.00
   9.800   16.55   -3.32    0.99   0.000   0.200   0.000    0.00
   9.850   16.38   -4.28    0.84   0.000   0.200   0.000    0.00
   9.900   15.81   -3.83    1.40   0.000   0.200   0.000    0.00
   9.950   15.56   -5.52    1.28   0.000   0.200   0.000    0.00
  10.000   15.44   -6.11    0.91   0.000   0.200   0.000    0.00
  10.050   15.01   -5.46    2.07   0.000   0.200   0.000    0.00
  10.100   15.16   -4.46    1.20   0.000   0.200   0.000    0.00
  10.150   15.14   -6.00    0.49   0.000   0.200   0.000    0.00
  10.200   15.77   -8.59    0.73   0.000   0.200   0.000    0.00
  10.250   16.13   -9.88    1.47   0.000   0.200   0.000    0.00
  10.300   16.60  -15.12    1.30   0.000   0.200   0.000    0.00
  10.350   16.31  -11.60    1.35   0.000   0.200   0.000    0.00
  10.400   15.35   -8.54    1.74   0.000   0.200   0.000    0.00
  10.450   14.78  -12.84    1.37   0.000   0.200   0.000    0.00
  10.500   14.91  -11.17    1.99   0.000   0.200   0.000    0.00
  10.550   14.54  -12.22    2.16   0.000   0.200   0.000    0.00
  10.600   13.68  -12.91    1.83   0.000   0.200   0.000    0.00
  10.650   13.85   -7.06    2.31   0.000   0.200   0.000    0.00
  10.700   14.22   -4.91    2.06   0.000   0.200   0.000    0.00
  10.750   14.04   -2.24    2.52   0.000   0.200   0.000    0.00
  10.800   13.67   -2.30    2.30   0.000   0.200   0.000    0.00
  10.850   13.62   -2.55    1.42   0.000   0.200   0.000    0.00
  10.900   14.04   -0.38    1.15   0.000   0.200   0.000    0.00
  10.950   13.70   -1.61    1.10   0.000   0.200   0.000    0.00
  11.000   12.87   -2.82    0.61   0.000   0.200   0.000    0.00
  11.050   12.70    1.05    0.59   0.000   0.200   0.000    0.00
  11.100   13.44   -0.17   -0.13   0.000   0.200   0.000    0.00
  11.150   12.67   -1.75   -0.90   0.000   0.200   0.000    0.00
  11.200   12.78    1.53   -1.17   0.000   0.200   0.000    0.00
  11.250   12.48    3.38   -0.40   0.000   0.200   0.000    0.00
  11.300   12.18    4.37   -0.57   0.000   0.200   0.000    0.00
  11.350   12.41    6.49    0.54   0.000   0.200   0.000    0.00
  11.400   12.13    4.99    0.83   0.000   0.200   0.000    0.00
  11.450   12.40    9.25    2.37   0.000   0.200   0.000    0.00
  11.500   12.88    7.36    2.55   0.000   0.200   0.000    0.00
  11.550   13.19   10.81    2.40   0.000   0.200   0.000    0.00
  11.600   13.32   10.44    2.65   0.000   0.200   0.000    0.00
  11.650   13.91    9.82    3.08   0.000   0.200   0.000    0.00
  11.700   13.65    8.41    2.59   0.000   0.200   0.000    0.00
  11.750   14.34    4.60    2.57   0.000   0.200   0.000    0.00
  11.800   14.77    5.71    1.03   0.000   0.200   0.000    0.00
  11.850   14.05    7.51    1.05   0.000   0.200   0.000    0.00
  11.900   14.24    8.00    0.45   0.000   0.200   0.000    0.00
  11.950   13.84   12.02    1.55   0.000   0.200   0.000    0.00
  12.000   13.10   10.80    2.37   0.000   0.200   0.000    0.00
  12.050   13.41   13.83    2.05   0.000   0.200   0.000    0.00
  12.100   13.31   14.11    2.62   0.000   0.200   0.000    0.00
  12.150   13.85   10.86    2.36   0.000   0.200   0.000    0.00
  12.200   14.14   10.87    2.64   0.000   0.200   0.000    0.00
  12.250   14.71   13.16    2.00   0.000   0.200   0.000    0.00
  12.300   14.71   13.04    1.53   0.000   0.200   0.000    0.00
  12.350   14.69    9.41    2.29   0.000   0.200   0.000    0.00
  12.400   14.21    8.82    2.55   0.000   0.200   0.000    0.00
  12.450   13.69    8.41    3.30   0.000   0.200   0.000    0.00
  12.500   13.33    7.70    3.29   0.000   0.200   0.000    0.00
  12.550   12.65    5.99    2.17   0.000   0.200   0.000    0.00
  12.600   13.09    8.21    2.58   0.000   0.200   0.000    0.00
  12.650   13.00    6.17    2.24   0.000   0.200   0.000    0.00
  12.700   12.80    6.77    1.57   0.000   0.200   0.000    0.00
  12.750   13.65    1.39    0.88   0.000   0.200   0.000    0.00
  12.800   13.09    4.72    1.30   0.000   0.200   0.000    0.00
  12.850   13.45    7.88    1.03   0.000   0.200   0.000    0.00
  12.900   13.01    3.02    1.81   0.000   0.200   0.000    0.00
  12.950   13.23    2.72    1.42   0.000   0.200   0.000    0.00
  13.000   13.61    4.00    2.17   0.000   0.200   0.000    0.00
  13.050   13.98    5.32    2.19   0.000   0.200   0.000    0.00
  13.100   14.63    8.28    2.01   0.000   0.200   0.000    0.00
  13.150   14.31    5.47    2.89   0.000   0.200   0.000    0.00
  13.200   15.25   -0.50    3.00   0.000   0.200   0.000    0.00
  13.250   15.57    1.29    2.98   0.000   0.200   0.000    0.00
  13.300   14.77    2.30    3.95   0.000   0.200   0.000    0.00
  13.350   15.32    3.81    3.66   0.000   0.200   0.000    0.00
  13.400   16.43    2.96    3.61   0.000   0.200   0.000    0.00
  13.450   16.66    2.84    4.56   0.000   0.200   0.000    0.00
  13.500   17.61    3.67    4.12   0.000   0.200   0.000    0.00
  13.550   18.47    3.27    3.38   0.000   0.200   0.000    0.00
  13.600   17.26    2.86    3.55   0.000   0.200   0.000    0.00
  13.650   16.56    2.25    4.36   0.000   0.200   0.000    0.00
  13.700   16.77    3.44    4.24   0.000   0.200   0.000    0.00
  13.750   17.28    2.41    3.99   0.000   0.200   0.000    0.00
  13.800   16.38    1.86    4.14   0.000   0.200   0.000    0.00
  13.850   16.37    1.89    5.09   0.000   0.200   0.000    0.00
  13.900   17.07    1.06    4.64   0.000   0.200   0.000    0.00
  13.950   16.81    1.84    4.94   0.000   0.200   0.000    0.00
  14.000   16.43    3.12    4.55   0.000   0.200   0.000    0.00
  14.050   16.41    3.30    4.59   0.000   0.200   0.000    0.00
  14.100   16.25    3.25    4.76   0.000   0.200   0.000    0.00
  14.150   17.62    3.07    4.43   0.000   0.200   0.000    0.00
  14.200   17.31    3.15    3.63   0.000   0.200   0.000    0.00
  14.250   17.28    3.39    4.10   0.000   0.200   0.000    0.00
  14.300   17.70    0.03    3.38   0.000   0.200   0.000    0.00
  14.350   18.19    3.89    4.77   0.000   0.200   0.000    0.00
  14.400   18.12    1.85    4.70   0.000   0.200   0.000    0.00
  14.450   18.01    0.88    4.75   0.000   0.200   0.000    0.00
  14.500   18.57    0.70    3.96   0.000   0.200   0.000    0.00
  14.550   19.34   -0.73    2.72   0.000   0.200   0.000    0.00
  14.600   19.27   -0.66    2.54   0.000   0.200   0.000    0.00
  14.650   19.30   -0.62    1.80   0.000   0.200   0.000    0.00
  14.700   18.81   -0.94    1.36   0.000   0.200   0.000    0.00
  14.750   18.24   -2.34    1.31   0.000   0.200   0.000    0.00
  14.800   18.92   -1.65    2.87   0.000   0.200   0.000    0.00
  14.850   19.35   -0.86    3.07   0.000   0.200   0.000    0.00
  14.900   19.01    0.85    2.68   0.000   0.200   0.000    0.00
  14.950   18.62    1.04    3.04   0.000   0.200   0.000    0.00
  15.000   19.08   -0.19    2.99   0.000   0.200   0.000    0.00
  15.050   19.05   -0.82    3.27   0.000   0.200   0.000    0.00
  15.100   19.80   -2.90    3.95   0.000   0.200   0.000    0.00
  15.150   20.26   -1.02    4.22   0.000   0.200   0.000    0.00
  15.200   20.48   -1.15    3.95   0.000   0.200   0.000    0.00
  15.250   21.10   -3.38    4.02   0.000   0.200   0.000    0.00
  15.300   21.73   -4.47    4.17   0.000   0.200   0.000    0.00
  15.350   20.96   -3.86    4.04   0.000   0.200   0.000    0.00
  15.400   20.88   -0.28    4.16   0.000   0.200   0.000    0.00
  15.450   20.55    1.90    4.34   0.000   0.200   0.000    0.00
  15.500   20.49    4.43    3.70   0.000   0.200   0.000    0.00
  15.550   21.37    3.54    4.46   0.000   0.200   0.000    0.00
  15.600   21.35    1.49    5.19   0.000   0.200   0.000    0.00
  15.650   21.22    0.94    5.47   0.000   0.200   0.000    0.00
  15.700   21.44    2.43    5.78   0.000   0.200   0.000    0.00
  15.750   21.84    1.43    5.83   0.000   0.200   0.000    0.00
  15.800   22.09    1.05    6.95   0.000   0.200   0.000    0.00
  15.850   21.73    3.39    6.27   0.000   0.200   0.000    0.00
  15.900   21.43    3.73    6.21   0.000   0.200   0.000    0.00
  15.950   21.51    4.31    5.47   0.000   0.200   0.000    0.00
  16.000   21.45    5.08    4.93   0.000   0.200   0.000    0.00
  16.050   20.77    4.26    4.62   0.000   0.200   0.000    0.00
  16.100   21.39    4.37    4.69   0.000   0.200   0.000    0.00
  16.150   21.07    3.01    5.10   0.000   0.200   0.000    0.00
  16.200   21.78    3.95    5.17   0.000   0.200   0.000    0.00
  16.250   21.51    6.03    3.77   0.000   0.200   0.000    0.00
  16.300   21.43    5.36    2.85   0.000   0.200   0.000    0.00
  16.350   20.64    3.22    3.62   0.000   0.200   0.000    0.00
  16.400   21.24    0.59    2.75   0.000   0.200   0.000    0.00
  16.450   21.89    0.74    3.10   0.000   0.200   0.000    0.00
  16.500   20.90    1.49    2.15   0.000   0.200   0.000    0.00
  16.550   20.03    3.40    2.41   0.000   0.200   0.000    0.00
  16.600   19.92    3.47    3.54   0.000   0.200   0.000    0.00
  16.650   20.22    4.67    3.37   0.000   0.200   0.000    0.00
  16.700   20.26    5.69    2.34   0.000   0.200   0.000    0.00
  16.750   20.96    4.87    2.24   0.000   0.200   0.000    0.00
  16.800   20.59    5.04    1.88   0.000   0.200   0.000    0.00
  16.850   21.51    4.13    1.71   0.000   0.200   0.000    0.00
  16.900   21.36    4.39    0.81   0.000   0.200   0.000    0.00
  16.950   21.50    5.64    0.41   0.000   0.200   0.000    0.00
  17.000   20.47    4.85    0.14   0.000   0.200   0.000    0.00
  17.050   20.28    1.21    0.48   0.000   0.200   0.000    0.00
  17.100   20.93   -1.38   -0.39   0.000   0.200   0.000    0.00
  17.150   21.24    0.02    0.45   0.000   0.200   0.000    0.00
  17.200   21.59   -1.15    1.29   0.000   0.200   0.000    0.00
  17.250   21.99   -2.12    1.56   0.000   0.200   0.000    0.00
  17.300   21.71   -0.61    1.47   0.000   0.200   0.000    0.00
  17.350   21.81   -0.15    1.34   0.000   0.200   0.000    0.00
  17.400   21.62   -0.14    0.95   0.000   0.200   0.000    0.00
  17.450   21.16    0.09    0.15   0.000   0.200   0.000    0.00
  17.500   20.89   -4.15   -0.22   0.000   0.200   0.000    0.00
  17.550   21.51   -4.12   -0.09   0.000   0.200   0.000    0.00
  17.600   22.14   -0.53   -0.65   0.000   0.200   0.000    0.00
  17.650   22.29    2.01   -1.02   0.000   0.200   0.000    0.00
  17.700   22.60   -1.09   -0.99   0.000   0.200   0.000    0.00
  17.750   23.11   -2.50   -1.18   0.000   0.200   0.000    0.00
  17.800   23.14   -1.51   -1.63   0.000   0.200   0.000    0.00
  17.850   23.30   -2.23   -0.35   0.000   0.200   0.000    0.00
  17.900   22.95   -0.49    0.31   0.000   0.200   0.000    0.00
  17.950   22.62   -0.36   -0.50   0.000   0.200   0.000    0.00
  18.000   22.77   -4.01   -0.14   0.000   0.200   0.000    0.00
  18.050   22.37   -4.57   -0.26   0.000   0.200   0.000    0.00
  18.100   21.80   -1.29    0.59   0.000   0.200   0.000    0.00
  18.150   22.27   -3.75    0.38   0.000   0.200   0.000    0.00
  18.200   22.74   -4.07   -0.12   0.000   0.200   0.000    0.00
  18.250   23.36   -1.50    0.17   0.000   0.200   0.000    0.00
  18.300   22.28   -0.63   -0.15   0.000   0.200   0.000    0.00
  18.350   22.48   -3.22   -0.87   0.000   0.200   0.000    0.00
  18.400   22.19   -2.44   -0.62   0.000   0.200   0.000    0.00
  18.450   21.41   -1.29   -1.24   0.000   0.200   0.000    0.00
  18.500   21.79   -4.21   -2.71   0.000   0.200   0.000    0.00
  18.550   21.79   -3.94   -2.99   0.000   0.200   0.000    0.00
  18.600   21.38   -6.20   -2.33   0.000   0.200   0.000    0.00
  18.650   21.65   -4.81   -2.08   0.000   0.200   0.000    0.00
  18.700   21.52   -1.48   -1.90   0.000   0.200   0.000    0.00
  18.750   21.75   -0.58   -1.75   0.000   0.200   0.000    0.00
  18.800   20.90   -1.28   -1.59   0.000   0.200   0.000    0.00
  18.850   20.92   -1.54   -2.68   0.000   0.200   0.000    0.00
  18.900   20.66   -3.93   -1.60   0.000   0.200   0.000    0.00
  18.950   20.08   -6.35   -0.97   0.000   0.200   0.000    0.00
  19.000   20.04   -7.18   -1.44   0.000   0.200   0.000    0.00
  19.050   20.64   -6.48   -2.19   0.000   0.200   0.000    0.00
  19.100   20.57   -5.92   -2.10   0.000   0.200   0.000    0.00
  19.150   20.09   -7.26   -1.06   0.000   0.200   0.000    0.00
  19.200   19.69   -6.19   -0.98   0.000   0.200   0.000    0.00
  19.250   19.55   -8.24   -2.03   0.000   0.200   0.000    0.00
  19.300   19.56   -6.79   -1.16   0.000   0.200   0.000    0.00
  19.350   20.48   -7.19   -1.17   0.000   0.200   0.000    0.00
  19.400   21.17   -5.73   -1.32   0.000   0.200   0.000    0.00
  19.450   21.17   -4.68   -1.11   0.000   0.200   0.000    0.00
  19.500   21.07   -5.83   -2.38   0.000   0.200   0.000    0.00
  19.550   20.05   -5.36   -2.12   0.000   0.200   0.000    0.00
  19.600   20.23   -7.51   -3.28   0.000   0.200   0.000    0.00
  19.650   19.90   -5.88   -2.76   0.000   0.200   0.000    0.00
  19.700   19.67   -6.31   -2.69   0.000   0.200   0.000    0.00
  19.750   19.59   -7.73   -2.84   0.000   0.200   0.000    0.00
  19.800   19.57   -5.35   -2.10   0.000   0.200   0.000    0.00
  19.850   20.60   -3.57   -2.33   0.000   0.200   0.000    0.00
  19.900   20.79   -4.98   -2.69   0.000   0.200   0.000    0.00
  19.950   20.89   -3.78   -1.71   0.000   0.200   0.000    0.00
  20.000   20.43   -4.36   -2.70   0.000   0.200   0.000    0.00
  20.050   20.22   -5.15   -1.66   0.000   0.200   0.000    0.00
  20.100   19.71   -4.89   -1.22   0.000   0.200   0.000    0.00
  20.150   19.99    0.31   -0.31   0.000   0.200   0.000    0.00
  20.200   20.33   -1.09   -0.72   0.000   0.200   0.000    0.00
  20.250   19.99    0.97   -0.61   0.000   0.200   0.000    0.00
  20.300   20.47    0.43   -1.07   0.000   0.200   0.000    0.00
  20.350   20.77   -0.56   -1.63   0.000   0.200   0.000    0.00
  20.400   20.51   -0.85   -1.13   0.000   0.200   0.000    0.00
  20.450   20.51    0.48   -1.31   0.000   0.200   0.000    0.00
  20.500   21.19   -0.41   -1.52   0.000   0.200   0.000    0.00
  20.550   21.47   -1.89   -1.43   0.000   0.200   0.000    0.00
  20.600   20.89   -1.06   -2.61   0.000   0.200   0.000    0.00
  20.650   19.62   -3.43   -2.74   0.000   0.200   0.000    0.00
  20.700   20.03   -5.21   -2.47   0.000   0.200   0.000    0.00
  20.750   20.10   -2.34   -2.98   0.000   0.200   0.000    0.00
  20.800   20.77   -3.34   -3.10   0.000   0.200   0.000    0.00
  20.850   20.51   -1.75   -3.37   0.000   0.200   0.000    0.00
  20.900   20.38   -5.64   -3.59   0.000   0.200   0.000    0.00
  20.950   20.85   -6.13   -2.84   0.000   0.200   0.000    0.00
  21.000   21.87   -5.44   -3.08   0.000   0.200   0.000    0.00
  21.050   21.82   -5.48   -3.53   0.000   0.200   0.000    0.00
  21.100   21.23   -7.98   -4.94   0.000   0.200   0.000    0.00
  21.150   21.89   -9.06   -4.34   0.000   0.200   0.000    0.00
  21.200   21.16  -10.13   -3.71   0.000   0.200   0.000    0.00
  21.250   21.89  -10.30   -2.72   0.000   0.200   0.000    0.00
  21.300   21.76   -9.72   -2.60   0.000   0.200   0.000    0.00
  21.350   21.29   -8.89   -2.31   0.000   0.200   0.000    0.00
  21.400   20.25   -8.42   -2.96   0.000   0.200   0.000    0.00
  21.450   19.52   -5.74   -2.16   0.000   0.200   0.000    0.00
  21.500   19.35   -3.75   -1.13   0.000   0.200   0.000    0.00
  21.550   18.70   -2.30   -1.27   0.000   0.200   0.000    0.00
  21.600   19.03   -2.69   -1.88   0.000   0.200   0.000    0.00
  21.650   19.44   -7.96   -2.22   0.000   0.200   0.000    0.00
  21.700   20.52   -9.44   -2.24   0.000   0.200   0.000    0.00
  21.750   20.92   -9.04   -1.37   0.000   0.200   0.000    0.00
  21.800   20.91   -8.26   -1.50   0.000   0.200   0.000    0.00
  21.850   21.29   -8.82   -1.44   0.000   0.200   0.000    0.00
  21.900   21.35   -6.54   -1.49   0.000   0.200   0.000    0.00
  21.950   21.50   -3.76   -1.81   0.000   0.200   0.000    0.00
  22.000   22.18   -3.15   -1.57   0.000   0.200   0.000    0.00
  22.050   22.56   -4.41   -1.01   0.000   0.200   0.000    0.00
  22.100   22.00   -3.77   -0.68   0.000   0.200   0.000    0.00
  22.150   21.99   -5.10   -0.69   0.000   0.200   0.000    0.00
  22.200   22.25   -2.51   -0.22   0.000   0.200   0.000    0.00
  22.250   22.38   -1.94   -0.14   0.000   0.200   0.000    0.00
  22.300   22.45   -2.92   -0.88   0.000   0.200   0.000    0.00
  22.350   21.65   -5.97   -0.48   0.000   0.200   0.000    0.00
  22.400   22.72   -7.02   -0.07   0.000   0.200   0.000    0.00
  22.450   22.73   -5.44   -0.07   0.000   0.200   0.000    0.00
  22.500   22.57   -5.78    1.16   0.000   0.200   0.000    0.00
  22.550   22.25   -4.95    1.22   0.000   0.200   0.000    0.00
  22.600   21.50   -5.05    0.97   0.000   0.200   0.000    0.00
  22.650   20.84   -7.40    1.31   0.000   0.200   0.000    0.00
  22.700   19.61   -6.02    1.35   0.000   0.200   0.000    0.00