! This hub-height wind-speed file was generated by TurbSim (from OpenFAST--128-NOTFOUND) on 04-Nov-2023 at 13:31:38.
!
! The requested statistics for this data were:
!    Mean Total Wind Speed =   20.000 m/s
!    Turbulence Intensity  =   14.420%
!
!   Time  HorSpd  WndDir  VerSpd  HorShr  VerShr  LnVShr  GstSpd
!  (sec)   (m/s)   (deg)   (m/s)     (-)     (-)     (-)   (m/s)
   0.000   19.73   -6.48    1.30   0.000   0.200   0.000    0.00
   0.050   19.27   -3.61    0.85   0.000   0.200   0.000    0.00
   0.100   19.35   -1.78    0.22   0.000   0.200   0.000    0.00
   0.150   18.89   -3.45   -0.87   0.000   0.200   0.000    0.00
   0.200   18.47   -0.91   -1.65   0.000   0.200   0.000    0.00
   0.250   17.54   -0.21   -1.22   0.000   0.200   0.000    0.00
   0.300   17.45    1.93   -0.31   0.000   0.200   0.000    0.00
   0.350   17.76    0.08    0.81   0.000   0.200   0.000    0.00
   0.400   17.63    1.20    0.05   0.000   0.200   0.000    0.00
   0.450   17.52    1.56   -1.57   0.000   0.200   0.000    0.00
   0.500   18.44   -0.45   -2.04   0.000   0.200   0.000    0.00
   0.550   18.85    0.46   -2.31   0.000   0.200   0.000    0.00
   0.600   18.48    1.90   -1.42   0.000   0.200   0.000    0.00
   0.650   18.39    2.95   -0.80   0.000   0.200   0.000    0.00
   0.700   18.90    1.52   -1.26   0.000   0.200   0.000    0.00
   0.750   19.26    2.46   -1.25   0.000   0.200   0.000    0.00
   0.800   19.65    4.47   -0.17   0.000   0.200   0.000    0.00
   0.850   19.52    2.67    1.03   0.000   0.200   0.000    0.00
   0.900   19.12   -0.13    1.34   0.000   0.200   0.000    0.00
   0.950   18.49    2.78    1.36   0.000   0.200   0.000    0.00
   1.000   19.17    3.64    0.48   0.000   0.200   0.000    0.00
   1.050   19.54    1.17    0.38   0.000   0.200   0.000    0.00
   1.100   18.91    1.84   -1.17   0.000   0.200   0.000    0.00
   1.150   19.95    3.21   -1.64   0.000   0.200   0.000    0.00
   1.200   20.78    3.81   -1.48   0.000   0.200   0.000    0.00
   1.250   20.58    2.76   -1.46   0.000   0.200   0.000    0.00
   1.300   19.12    2.29   -0.33   0.000   0.200   0.000    0.00
   1.350   18.72    0.94   -0.01   0.000   0.200   0.000    0.00
   1.400   17.89    0.13   -0.77   0.000   0.200   0.000    0.00
   1.450   18.27   -0.65   -0.14   0.000   0.200   0.000    0.00
   1.500   18.03    0.08   -1.11   0.000   0.200   0.000    0.00
   1.550   19.63    4.24   -1.60   0.000   0.200   0.000    0.00
   1.600   19.60    4.19   -1.24   0.000   0.200   0.000    0.00
   1.650   18.76    4.34   -1.17   0.000   0.200   0.000    0.00
   1.700   18.58    5.29   -1.73   0.000   0.200   0.000    0.00
   1.750   18.78    4.96   -1.34   0.000   0.200   0.000    0.00
   1.800   18.34    4.10   -1.01   0.000   0.200   0.000    0.00
   1.850   18.03    3.94   -0.39   0.000   0.200   0.000    0.00
   1.900   19.13    3.65   -0.41   0.000   0.200   0.000    0.00
   1.950   18.95    6.63    0.34   0.000   0.200   0.000    0.00
   2.000   19.55    7.17   -0.06   0.000   0.200   0.000    0.00
   2.050   19.52    7.11   -1.21   0.000   0.200   0.000    0.00
   2.100   19.46    7.88   -1.51   0.000   0.200   0.000    0.00
   2.150   19.14    5.91   -2.42   0.000   0.200   0.000    0.00
   2.200   19.54    4.88   -1.74   0.000   0.200   0.000    0.00
   2.250   19.81    4.77   -1.70   0.000   0.200   0.000    0.00
   2.300   19.39    5.97   -2.23   0.000   0.200   0.000    0.00
   2.350   19.51    6.72   -2.26   0.000   0.200   0.000    0.00
   2.400   19.97    4.52   -1.71   0.000   0.200   0.000    0.00
   2.450   20.05    1.96   -2.45   0.000   0.200   0.000    0.00
   2.500   20.06    2.62   -2.42   0.000   0.200   0.000    0.00
   2.550   20.71    2.34   -2.97   0.000   0.200   0.000    0.00
   2.600   21.46   -0.74   -2.72   0.000   0.200   0.000    0.00
   2.650   21.35    0.44   -2.52   0.000   0.200   0.000    0.00
   2.700   21.57   -1.01   -2.32   0.000   0.200   0.000    0.00
   2.750   20.97   -1.17   -1.55   0.000   0.200   0.000    0.00
   2.800   21.90   -4.30   -2.21   0.000   0.200   0.000    0.00
   2.850   21.95   -5.73   -2.05   0.000   0.200   0.000    0.00
   2.900   22.36   -4.29    0.06   0.000   0.200   0.000    0.00
   2.950   21.51   -1.47   -0.36   0.000   0.200   0.000    0.00
   3.000   21.72   -2.52   -0.14   0.000   0.200   0.000    0.00
   3.050   21.78   -2.41    0.45   0.000   0.200   0.000    0.00
   3.100   21.53   -2.47    0.47   0.000   0.200   0.000    0.00
   3.150   21.69   -1.75   -0.17   0.000   0.200   0.000    0.00
   3.200   21.49   -0.18    0.41   0.000   0.200   0.000    0.00
   3.250   21.03    1.28    0.05   0.000   0.200   0.000    0.00
   3.300   19.67    1.48   -0.49   0.000   0.200   0.000    0.00
   3.350   19.57    0.40   -0.34   0.000   0.200   0.000    0.00
   3.400   20.28   -1.53    0.04   0.000   0.200   0.000    0.00
   3.450   20.24   -1.77   -0.05   0.000   0.200   0.000    0.00
   3.500   21.53    0.39   -0.19   0.000   0.200   0.000    0.00
   3.550   21.89    0.14   -0.75   0.000   0.200   0.000    0.00
   3.600   21.54    3.47   -1.73   0.000   0.200   0.000    0.00
   3.650   21.61   -0.25   -1.71   0.000   0.200   0.000    0.00
   3.700   22.16   -0.73   -1.80   0.000   0.200   0.000    0.00
   3.750   21.04   -1.52   -1.54   0.000   0.200   0.000    0.00
   3.800   21.68   -1.62   -1.63   0.000   0.200   0.000    0.00
   3.850   21.81   -2.70   -1.03   0.000   0.200   0.000    0.00
   3.900   21.73   -1.61    0.74   0.000   0.200   0.000    0.00
   3.950   21.87   -0.11   -0.27   0.000   0.200   0.000    0.00
   4.000   22.50   -0.88   -0.81   0.000   0.200   0.000    0.00
   4.050   22.18    0.34   -1.63   0.000   0.200   0.000    0.00
   4.100   21.67    0.70   -1.15   0.000   0.200   0.000    0.00
   4.150   21.41    3.42   -0.73   0.000   0.200   0.000    0.00
   4.200   20.93    5.52   -1.57   0.000   0.200   0.000    0.00
   4.250   21.48    5.35   -1.22   0.000   0.200   0.000    0.00
   4.300   21.72    6.36   -0.63   0.000   0.200   0.000    0.00
   4.350   21.69    7.54   -1.01   0.000   0.200   0.000    0.00
   4.400   21.04    5.42   -1.91   0.000   0.200   0.000    0.00
   4.450   20.92    3.53   -3.27   0.000   0.200   0.000    0.00
   4.500   21.46    4.98   -3.17   0.000   0.200   0.000    0.00
   4.550   20.52    3.90   -2.99   0.000   0.200   0.000    0.00
   4.600   19.79    3.09   -2.90   0.000   0.200   0.000    0.00
   4.650   19.08    4.45   -3.07   0.000   0.200   0.000    0.00
   4.700   19.23    3.86   -2.87   0.000   0.200   0.000    0.00
   4.750   19.29    3.93   -2.44   0.000   0.200   0.000    0.00
   4.800   19.10    8.58   -1.71   0.000   0.200   0.000    0.00
   4.850   19.50    7.91   -2.09   0.000   0.200   0.000    0.00
   4.900   19.18    8.38   -1.44   0.000   0.200   0.000    0.00
   4.950   18.07    9.23   -1.89   0.000   0.200   0.000    0.00
   5.000   18.93    7.82   -2.18   0.000   0.200   0.000    0.00
   5.050   19.62    8.70   -2.15   0.000   0.200   0.000    0.00
   5.100   19.58    6.92   -2.09   0.000   0.200   0.000    0.00
   5.150   19.43    2.19   -2.19   0.000   0.200   0.000    0.00
   5.200   19.17    0.12   -2.77   0.000   0.200   0.000    0.00
   5.250   19.01    0.57   -1.39   0.000   0.200   0.000    0.00
   5.300   19.01    0.13   -1.09   0.000   0.200   0.000    0.00
   5.350   18.44   -3.51   -0.91   0.000   0.200   0.000    0.00
   5.400   19.18   -0.68   -0.35   0.000   0.200   0.000    0.00
   5.450   19.13    0.90   -0.73   0.000   0.200   0.000    0.00
   5.500   19.25    0.45   -0.23   0.000   0.200   0.000    0.00
   5.550   18.45    1.52    0.36   0.000   0.200   0.000    0.00
   5.600   19.20   -1.52    0.52   0.000   0.200   0.000    0.00
   5.650   19.46   -2.71    0.61   0.000   0.200   0.000    0.00
   5.700   19.81   -0.37    0.36   0.000   0.200   0.000    0.00
   5.750   19.55    0.11   -0.95   0.000   0.200   0.000    0.00
   5.800   20.33   -2.63    0.51   0.000   0.200   0.000    0.00
   5.850   20.07   -2.58    0.69   0.000   0.200   0.000    0.00
   5.900   19.28   -3.40    0.44   0.000   0.200   0.000    0.00
   5.950   19.36   -2.90    1.15   0.000   0.200   0.000    0.00
   6.000   19.36   -2.62    1.24   0.000   0.200   0.000    0.00
   6.050   19.93   -1.86    1.94   0.000   0.200   0.000    0.00
   6.100   20.44   -1.82    1.15   0.000   0.200   0.000    0.00
   6.150   20.37   -1.61    1.98   0.000   0.200   0.000    0.00
   6.200   20.52   -3.55    2.52   0.000   0.200   0.000    0.00
   6.250   20.85   -5.42    2.93   0.000   0.200   0.000    0.00
   6.300   20.45   -6.39    2.83   0.000   0.200   0.000    0.00
   6.350   19.10   -6.01    3.55   0.000   0.200   0.000    0.00
   6.400   18.88   -6.37    4.00   0.000   0.200   0.000    0.00
   6.450   18.17   -6.83    4.17   0.000   0.200   0.000    0.00
   6.500   18.66   -7.41    4.52   0.000   0.200   0.000    0.00
   6.550   18.56   -8.96    3.50   0.000   0.200   0.000    0.00
   6.600   18.82   -6.45    4.27   0.000   0.200   0.000    0.00
   6.650   18.57   -8.77    4.46   0.000   0.200   0.000    0.00
   6.700   17.75   -5.87    4.93   0.000   0.200   0.000    0.00
   6.750   17.48   -4.67    5.48   0.000   0.200   0.000    0.00
   6.800   17.85   -3.27    5.56   0.000   0.200   0.000    0.00
   6.850   18.03   -2.09    4.98   0.000   0.200   0.000    0.00
   6.900   18.34   -3.74    5.50   0.000   0.200   0.000    0.00
   6.950   18.43   -4.15    5.00   0.000   0.200   0.000    0.00
   7.000   18.48   -1.53    5.38   0.000   0.200   0.000    0.00
   7.050   19.29   -0.54    5.66   0.000   0.200   0.000    0.00
   7.100   19.26    0.98    4.25   0.000   0.200   0.000    0.00
   7.150   18.85    1.92    4.07   0.000   0.200   0.000    0.00
   7.200   18.60    2.73    4.43   0.000   0.200   0.000    0.00
   7.250   18.75    2.66    3.62   0.000   0.200   0.000    0.00
   7.300   19.06    4.67    3.55   0.000   0.200   0.000    0.00
   7.350   19.30    4.46    3.14   0.000   0.200   0.000    0.00
   7.400   19.81    4.49    2.21   0.000   0.200   0.000    0.00
   7.450   19.94    5.99    2.20   0.000   0.200   0.000    0.00
   7.500   19.40    1.84    2.38   0.000   0.200   0.000    0.00
   7.550   18.48    1.84    3.55   0.000   0.200   0.000    0.00
   7.600   19.03    2.75    3.50   0.000   0.200   0.000    0.00
   7.650   19.16    2.47    4.44   0.000   0.200   0.000    0.00
   7.700   19.39    2.53    4.29   0.000   0.200   0.000    0.00
   7.750   19.26    1.95    4.38   0.000   0.200   0.000    0.00
   7.800   19.02    3.19    4.02   0.000   0.200   0.000    0.00
   7.850   18.28   -0.37    3.59   0.000   0.200   0.000    0.00
   7.900   20.13    0.20    2.69   0.000   0.200   0.000    0.00
   7.950   19.51    1.84    3.90   0.000   0.200   0.000    0.00
   8.000   19.41    2.68    3.88   0.000   0.200   0.000    0.00
   8.050   19.68   -1.38    3.62   0.000   0.200   0.000    0.00
   8.100   19.93   -4.15    5.52   0.000   0.200   0.000    0.00
   8.150   20.52   -3.18    5.64   0.000   0.200   0.000    0.00
   8.200   20.19   -0.54    4.84   0.000   0.200   0.000    0.00
   8.250   20.51   -1.02    4.74   0.000   0.200   0.000    0.00
   8.300   21.16    0.90    5.04   0.000   0.200   0.000    0.00
   8.350   20.07    5.77    4.71   0.000   0.200   0.000    0.00
   8.400   19.92    3.49    3.81   0.000   0.200   0.000    0.00
   8.450   19.95    2.59    2.24   0.000   0.200   0.000    0.00
   8.500   19.62    2.95    2.56   0.000   0.200   0.000    0.00
   8.550   20.07    1.21    1.04   0.000   0.200   0.000    0.00
   8.600   19.46   -1.05    1.34   0.000   0.200   0.000    0.00
   8.650   19.53    1.64    1.69   0.000   0.200   0.000    0.00
   8.700   20.30    2.75    2.72   0.000   0.200   0.000    0.00
   8.750   19.62   -0.36    2.26   0.000   0.200   0.000    0.00
   8.800   19.51    0.03    3.67   0.000   0.200   0.000    0.00
   8.850   18.56    1.40    4.58   0.000   0.200   0.000    0.00
   8.900   18.38    2.41    4.50   0.000   0.200   0.000    0.00
   8.950   18.88    2.42    4.24   0.000   0.200   0.000    0.00
   9.000   19.15    3.20    4.42   0.000   0.200   0.000    0.00
   9.050   18.55    5.56    5.14   0.000   0.200   0.000    0.00
   9.100   18.13    6.18    4.53   0.000   0.200   0.000    0.00
   9.150   18.63    6.17    4.75   0.000   0.200   0.000    0.00
   9.200   18.30    4.40    5.20   0.000   0.200   0.000    0.00
   9.250   18.64    1.14    4.56   0.000   0.200   0.000    0.00
   9.300   17.77    1.00    5.25   0.000   0.200   0.000    0.00
   9.350   18.09    0.02    5.13   0.000   0.200   0.000    0.00
   9.400   17.33   -2.28    5.08   0.000   0.200   0.000    0.00
   9.450   16.88   -1.37    5.50   0.000   0.200   0.000    0.00
   9.500   16.68   -1.87    6.21   0.000   0.200   0.000    0.00
   9.550   16.45   -5.77    6.38   0.000   0.200   0.000    0.00
   9.600   16.03   -3.71    6.64   0.000   0.200   0.000    0.00
   9.650   15.76   -2.54    7.67   0.000   0.200   0.000    0.00
   9.700   15.75   -2.19    6.80   0.000   0.200   0.000    0.00
   9.750   15.33   -0.84    6.51   0.000   0.200   0.000    0.00
   9.800   15.34   -4.22    5.57   0.000   0.200   0.000    0.00
   9.850   15.78   -0.84    5.06   0.000   0.200   0.000    0.00
   9.900   15.64    1.16    4.95   0.000   0.200   0.000    0.00
   9.950   15.46    2.92    4.86   0.000   0.200   0.000    0.00
  10.000   15.84    1.13    4.37   0.000   0.200   0.000    0.00
  10.050   15.45    0.45    4.97   0.000   0.200   0.000    0.00
  10.100   15.70    3.34    3.44   0.000   0.200   0.000    0.00
  10.150   15.65    6.40    3.47   0.000   0.200   0.000    0.00
  10.200   15.84    6.72    3.78   0.000   0.200   0.000    0.00
  10.250   16.44    8.42    3.73   0.000   0.200   0.000    0.00
  10.300   16.39    7.27    3.88   0.000   0.200   0.000    0.00
  10.350   15.56    5.38    4.41   0.000   0.200   0.000    0.00
  10.400   15.71    8.16    3.77   0.000   0.200   0.000    0.00
  10.450   15.73    7.74    2.89   0.000   0.200   0.000    0.00
  10.500   16.51   11.34    2.68   0.000   0.200   0.000    0.00
  10.550   17.15    9.03    3.29   0.000   0.200   0.000    0.00
  10.600   16.98    5.34    1.48   0.000   0.200   0.000    0.00
  10.650   16.56    6.32    2.09   0.000   0.200   0.000    0.00
  10.700   16.29    6.17    1.61   0.000   0.200   0.000    0.00
  10.750   15.81    3.42    2.00   0.000   0.200   0.000    0.00
  10.800   16.67    6.19    3.31   0.000   0.200   0.000    0.00
  10.850   15.25   10.39    2.76   0.000   0.200   0.000    0.00
  10.900   14.22    8.53    1.96   0.000   0.200   0.000    0.00
  10.950   13.71    7.69    2.19   0.000   0.200   0.000    0.00
  11.000   14.30    8.72    1.63   0.000   0.200   0.000    0.00
  11.050   14.85    8.38    1.89   0.000   0.200   0.000    0.00
  11.100   14.97    6.40    1.37   0.000   0.200   0.000    0.00
  11.150   15.17    9.05    0.50   0.000   0.200   0.000    0.00
  11.200   14.95    7.27    1.22   0.000   0.200   0.000    0.00
  11.250   15.50    5.33    2.14   0.000   0.200   0.000    0.00
  11.300   14.48    1.75    2.50   0.000   0.200   0.000    0.00
  11.350   14.35    2.90    1.91   0.000   0.200   0.000    0.00
  11.400   14.95    3.09    1.03   0.000   0.200   0.000    0.00
  11.450   14.83    2.96    0.63   0.000   0.200   0.000    0.00
  11.500   15.45    1.56    0.85   0.000   0.200   0.000    0.00
  11.550   15.84   -0.22    0.16   0.000   0.200   0.000    0.00
  11.600   15.76    4.27    1.15   0.000   0.200   0.000    0.00
  11.650   16.62    5.44    1.75   0.000   0.200   0.000    0.00
  11.700   16.84    7.35    1.22   0.000   0.200   0.000    0.00
  11.750   16.54    3.50    1.28   0.000   0.200   0.000    0.00
  11.800   16.73    6.30    1.33   0.000   0.200   0.000    0.00
  11.850   16.81    4.02    2.10   0.000   0.200   0.000    0.00
  11.900   17.39    3.12    2.49   0.000   0.200   0.000    0.00
  11.950   18.13    4.00    2.37   0.000   0.200   0.000    0.00
  12.000   17.60    1.73    3.08   0.000   0.200   0.000    0.00
  12.050   17.78    0.75    3.03   0.000   0.200   0.000    0.00
  12.100   17.30    4.48    2.80   0.000   0.200   0.000    0.00
  12.150   17.93    5.16    3.18   0.000   0.200   0.000    0.00
  12.200   18.58    4.79    1.77   0.000   0.200   0.000    0.00
  12.250   18.90    5.86    1.62   0.000   0.200   0.000    0.00
  12.300   19.62    4.97    2.10   0.000   0.200   0.000    0.00
  12.350   18.03    5.84    1.61   0.000   0.200   0.000    0.00
  12.400   18.41    5.64    2.29   0.000   0.200   0.000    0.00
  12.450   19.33    4.59    3.34   0.000   0.200   0.000    0.00
  12.500   20.11    6.42    2.84   0.000   0.200   0.000    0.00
  12.550   20.18    5.29    4.01   0.000   0.200   0.000    0.00
  12.600   19.18    3.47    3.77   0.000   0.200   0.000    0.00
  12.650   19.19    3.55    3.72   0.000   0.200   0.000    0.00
  12.700   18.28    1.74    3.61   0.000   0.200   0.000    0.00
  12.750   19.40    2.51    3.68   0.000   0.200   0.000    0.00
  12.800   19.21    5.39    3.36   0.000   0.200   0.000    0.00
  12.850   18.80    7.07    3.96   0.000   0.200   0.000    0.00
  12.900   18.50    6.10    4.08   0.000   0.200   0.000    0.00
  12.950   18.82    3.07    4.80   0.000   0.200   0.000    0.00
  13.000   19.03    2.84    4.93   0.000   0.200   0.000    0.00
  13.050   18.68    5.74    4.50   0.000   0.200   0.000    0.00
  13.100   19.09    4.67    3.59   0.000   0.200   0.000    0.00
  13.150   19.12    2.68    2.95   0.000   0.200   0.000    0.00
  13.200   19.07    1.18    2.03   0.000   0.200   0.000    0.00
  13.250   19.63   -0.17    1.68   0.000   0.200   0.000    0.00
  13.300   19.57    0.92    0.62   0.000   0.200   0.000    0.00
  13.350   19.25   -0.22    0.85   0.000   0.200   0.000    0.00
  13.400   19.08    0.41    1.42   0.000   0.200   0.000    0.00
  13.450   18.97    1.66    0.28   0.000   0.200   0.000    0.00
  13.500   18.62    0.31    0.70   0.000   0.200   0.000    0.00
  13.550   18.80    0.16   -0.17   0.000   0.200   0.000    0.00
  13.600   18.16    0.07   -0.06   0.000   0.200   0.000    0.00
  13.650   18.40   -0.91   -0.16   0.000   0.200   0.000    0.00
  13.700   17.53    0.06    0.01   0.000   0.200   0.000    0.00
  13.750   17.99    4.03   -0.01   0.000   0.200   0.000    0.00
  13.800   18.27    3.61    0.16   0.000   0.200   0.000    0.00
  13.850   18.42    4.31   -0.09   0.000   0.200   0.000    0.00
  13.900   19.39    6.22    0.57   0.000   0.200   0.000    0.00
  13.950   18.89   12.50    0.55   0.000   0.200   0.000    0.00
  14.000   19.61   11.84    1.11   0.000   0.200   0.000    0.00
  14.050   19.68    8.32    0.21   0.000   0.200   0.000    0.00
  14.100   19.34    6.43    0.08   0.000   0.200   0.000    0.00
  14.150   18.38    8.66    0.05   0.000   0.200   0.000    0.00
  14.200   18.06    8.27    0.33   0.000   0.200   0.000    0.00
  14.250   17.43    8.87    0.55   0.000   0.200   0.000    0.00
  14.300   17.40    5.76    0.36   0.000   0.200   0.000    0.00
  14.350   17.36    0.49   -0.16   0.000   0.200   0.000    0.00
  14.400   17.19    0.44    1.22   0.000   0.200   0.000    0.00
  14.450   17.76   -3.90    0.91   0.000   0.200   0.000    0.00
  14.500   17.19   -1.73    0.23   0.000   0.200   0.000    0.00
  14.550   16.57    0.60    0.48   0.000   0.200   0.000    0.00
  14.600   15.81    4.82    0.49   0.000   0.200   0.000    0.00
  14.650   16.67    3.21    0.01   0.000   0.200   0.000    0.00
  14.700   17.61    3.67   -0.17   0.000   0.200   0.000    0.00
  14.750   17.51    6.70    0.10   0.000   0.200   0.000    0.00
  14.800   17.14    4.34    1.22   0.000   0.200   0.000    0.00
  14.850   17.36    6.19    0.57   0.000   0.200   0.000    0.00
  14.900   17.26    6.62   -0.28   0.000   0.200   0.000    0.00
  14.950   17.29    6.22   -0.48   0.000   0.200   0.000    0.00
  15.000   17.57    6.18   -0.02   0.000   0.200   0.000    0.00
  15.050   18.05    3.01    0.09   0.000   0.200   0.000    0.00
  15.100   18.51    2.36   -0.40   0.000   0.200   0.000    0.00
  15.150   18.38    3.82   -0.07   0.000   0.200   0.000    0.00
  15.200   18.24    4.74    0.45   0.000   0.200   0.000    0.00
  15.250   18.69    4.12    0.56   0.000   0.200   0.000    0.00
  15.300   19.88    1.21    0.26   0.000   0.200   0.000    0.00
  15.350   19.70    0.43   -0.81   0.000   0.200   0.000    0.00
  15.400   19.43    5.28   -0.30   0.000   0.200   0.000    0.00
  15.450   18.21    7.97   -0.43   0.000   0.200   0.000    0.00
  15.500   17.15    7.81    0.35   0.000   0.200   0.000    0.00
  15.550   16.60    7.86    0.43   0.000   0.200   0.000    0.00
  15.600   16.28   10.55    0.40   0.000   0.200   0.000    0.00
  15.650   16.04    8.80    0.45   0.000   0.200   0.000    0.00
  15.700   16.37    9.78   -0.23   0.000   0.200   0.000    0.00
  15.750   16.57    7.95    1.11   0.000   0.200   0.000    0.00
  15.800   15.94    7.67    0.15   0.000   0.200   0.000    0.00
  15.850   16.35    8.36   -0.49   0.000   0.200   0.000    0.00
  15.900   16.39    9.34   -0.94   0.000   0.200   0.000    0.00
  15.950   16.49   11.48   -0.64   0.000   0.200   0.000    0.00
  16.000   16.55   11.99   -0.84   0.000   0.200   0.000    0.00
  16.050   15.63   13.23   -1.28   0.000   0.200   0.000    0.00
  16.100   16.10   12.19    0.34   0.000   0.200   0.000    0.00
  16.150   15.61    9.30   -0.74   0.000   0.200   0.000    0.00
  16.200   15.12    6.19   -0.55   0.000   0.200   0.000    0.00
  16.250   15.11    9.21    1.03   0.000   0.200   0.000    0.00
  16.300   15.83    8.03    0.32   0.000   0.200   0.000    0.00
  16.350   15.42    6.92    0.80   0.000   0.200   0.000    0.00
  16.400   15.86    4.64    1.46   0.000   0.200   0.000    0.00
  16.450   15.91    0.69    0.70   0.000   0.200   0.000    0.00
  16.500   15.90    4.46   -0.30   0.000   0.200   0.000    0.00
  16.550   15.63    5.33    1.11   0.000   0.200   0.000    0.00
  16.600   15.63    2.03    1.29   0.000   0.200   0.000    0.00
  16.650   15.62    2.51    0.60   0.000   0.200   0.000    0.00
  16.700   14.79    7.74    0.50   0.000   0.200   0.000    0.00
  16.750   15.80    8.14    1.01   0.000   0.200   0.000    0.00
  16.800   15.75   10.71    1.34   0.000   0.200   0.000    0.00
  16.850   15.74    9.75    1.49   0.000   0.200   0.000    0.00
  16.900   14.90    4.33    2.22   0.000   0.200   0.000    0.00
  16.950   14.42    4.15    2.50   0.000   0.200   0.000    0.00
  17.000   14.40    7.14    2.30   0.000   0.200   0.000    0.00
  17.050   14.59    3.10    1.90   0.000   0.200   0.000    0.00
  17.100   13.83    1.75    1.34   0.000   0.200   0.000    0.00
  17.150   14.75    1.03    1.13   0.000   0.200   0.000    0.00
  17.200   14.17   -2.17    0.81   0.000   0.200   0.000    0.00
  17.250   14.11    0.02    0.49   0.000   0.200   0.000    0.00
  17.300   14.62   -0.82    1.23   0.000   0.200   0.000    0.00
  17.350   14.46    0.47    0.18   0.000   0.200   0.000    0.00
  17.400   14.21   -0.47   -1.59   0.000   0.200   0.000    0.00
  17.450   14.70    1.41   -1.43   0.000   0.200   0.000    0.00
  17.500   14.22   -2.83   -2.11   0.000   0.200   0.000    0.00
  17.550   15.37   -4.20   -1.84   0.000   0.200   0.000    0.00
  17.600   15.16   -0.58   -1.64   0.000   0.200   0.000    0.00
  17.650   15.12   -0.43   -1.62   0.000   0.200   0.000    0.00
  17.700   15.52   -0.88   -1.03   0.000   0.200   0.000    0.00
  17.750   15.21    2.88   -0.96   0.000   0.200   0.000    0.00
  17.800   16.26    2.00   -0.93   0.000   0.200   0.000    0.00
  17.850   16.99    4.71   -0.05   0.000   0.200   0.000    0.00
  17.900   16.41    6.78   -0.69   0.000   0.200   0.000    0.00
  17.950   16.76    6.59   -1.22   0.000   0.200   0.000    0.00
  18.000   16.53    6.10   -0.89   0.000   0.200   0.000    0.00
  18.050   16.38    9.22   -0.60   0.000   0.200   0.000    0.00
  18.100   17.18    7.58   -0.53   0.000   0.200   0.000    0.00
  18.150   16.73    9.46    0.34   0.000   0.200   0.000    0.00
  18.200   16.76    9.65    1.27   0.000   0.200   0.000    0.00
  18.250   16.82   11.33    2.10   0.000   0.200   0.000    0.00
  18.300   16.41   12.10    2.26   0.000   0.200   0.000    0.00
  18.350   15.78   14.24    2.15   0.000   0.200   0.000    0.00
  18.400   16.60   15.69    1.45   0.000   0.200   0.000    0.00
  18.450   16.06   15.36    1.38   0.000   0.200   0.000    0.00
  18.500   15.70   12.07    0.32   0.000   0.200   0.000    0.00
  18.550   15.99    9.21    0.05   0.000   0.200   0.000    0.00
  18.600   16.11    7.86   -0.97   0.000   0.200   0.000    0.00
  18.650   16.58    5.65   -0.99   0.000   0.200   0.000    0.00
  18.700   16.05    2.64   -1.50   0.000   0.200   0.000    0.00
  18.750   15.77    3.57   -1.07   0.000   0.200   0.000    0.00
  18.800   15.94    6.86   -0.28   0.000   0.200   0.000    0.00
  18.850   16.07    6.38   -0.46   0.000   0.200   0.000    0.00
  18.900   15.73    9.78    0.02   0.000   0.200   0.000    0.00
  18.950   15.86    9.81   -0.21   0.000   0.200   0.000    0.00
  19.000   15.86    9.93    0.52   0.000   0.200   0.000    0.00
  19.050   15.82   10.81   -0.69   0.000   0.200   0.000    0.00
  19.100   16.08   10.43    0.06   0.000   0.200   0.000    0.00
  19.150   16.80   10.95    1.42   0.000   0.200   0.000    0.00
  19.200   16.44   12.88    1.73   0.000   0.200   0.000    0.00
  19.250   16.24   11.61    1.35   0.000   0.200   0.000    0.00
  19.300   15.40   13.82   -0.19   0.000   0.200   0.000    0.00
  19.350   16.23   14.56    0.28   0.000   0.200   0.000    0.00
  19.400   16.24   15.01    0.79   0.000   0.200   0.000    0.00
  19.450   16.53   11.66    0.29   0.000   0.200   0.000    0.00
  19.500   16.32   13.69    0.02   0.000   0.200   0.000    0.00
  19.550   15.72   13.10    0.20   0.000   0.200   0.000    0.00
  19.600   15.35   13.33    0.06   0.000   0.200   0.000    0.00
  19.650   15.52   13.49   -0.23   0.000   0.200   0.000    0.00
  19.700   16.17   11.90   -0.46   0.000   0.200   0.000    0.00
  19.750   16.24   12.47   -0.44   0.000   0.200   0.000    0.00
  19.800   16.49   14.85    0.03   0.000   0.200   0.000    0.00
  19.850   16.35   13.88   -0.31   0.000   0.200   0.000    0.00
  19.900   15.33   15.45    0.16   0.000   0.200   0.000    0.00
  19.950   16.11   17.14   -0.99   0.000   0.200   0.000    0.00
  20.000   16.18   18.69    0.78   0.000   0.200   0.000    0.00
  20.050   15.91   17.68    1.14   0.000   0.200   0.000    0.00
  20.100   15.74   15.84    1.71   0.000   0.200   0.000    0.00
  20.150   15.51   13.53    1.73   0.000   0.200   0.000    0.00
  20.200   16.06   15.82    1.69   0.000   0.200   0.000    0.00
  20.250   16.32   15.70    3.59   0.000   0.200   0.000    0.00
  20.300   16.09   17.59    2.74   0.000   0.200   0.000    0.00
  20.350   16.19   15.24    3.45   0.000   0.200   0.000    0.00
  20.400   15.79   15.15    2.94   0.000   0.200   0.000    0.00
  20.450   14.79   15.87    2.33   0.000   0.200   0.000    0.00
  20.500   15.71   13.89    3.35   0.000   0.200   0.000    0.00
  20.550   16.22   16.56    3.54   0.000   0.200   0.000    0.00
  20.600   16.20   11.52    2.28   0.000   0.200   0.000    0.00
  20.650   16.28   10.38    2.73   0.000   0.200   0.000    0.00
  20.700   15.84    8.68    3.23   0.000   0.200   0.000    0.00
  20.750   15.82    8.66    3.03   0.000   0.200   0.000    0.00
  20.800   15.98    2.29    3.37   0.000   0.200   0.000    0.00
  20.850   16.61    4.82    2.39   0.000   0.200   0.000    0.00
  20.900   16.98    5.16    3.56   0.000   0.200   0.000    0.00
  20.950   17.86    3.94    3.28   0.000   0.200   0.000    0.00
  21.000   17.73    7.17    4.14   0.000   0.200   0.000    0.00
  21.050   18.83    6.17    3.84   0.000   0.200   0.000    0.00
  21.100   19.21    7.81    2.93   0.000   0.200   0.000    0.00
  21.150   19.16    5.73    2.65   0.000   0.200   0.000    0.00
  21.200   19.08    6.42    2.72   0.000   0.200   0.000    0.00
  21.250   19.25   10.96    2.91   0.000   0.200   0.000    0.00
  21.300   19.36    9.22    2.21   0.000   0.200   0.000    0.00
  21.350   19.54    7.68    2.49   0.000   0.200   0.000    0.00
  21.400   20.34    6.79    2.21   0.000   0.200   0.000    0.00
  21.450   19.77    7.63    0.90   0.000   0.200   0.000    0.00
  21.500   19.45    7.34    0.56   0.000   0.200   0.000    0.00
  21.550   18.62    7.67    1.17   0.000   0.200   0.000    0.00
  21.600   19.59    7.65    1.46   0.000   0.200   0.000    0.00
  21.650   19.20    6.14    0.89   0.000   0.200   0.000    0.00
  21.700   18.72    5.37   -0.70   0.000   0.200   0.000    0.00
  21.750   18.22    3.82   -0.88   0.000   0.200   0.000    0.00
  21.800   18.03    4.73   -1.23   0.000   0.200   0.000    0.00
  21.850   19.16    2.37   -0.95   0.000   0.200   0.000    0.00
  21.900   19.18    2.90   -0.80   0.000   0.200   0.000    0.00
  21.950   18.39    2.88   -1.26   0.000   0.200   0.000    0.00
  22.000   18.98    1.74   -1.83   0.000   0.200   0.000    0.00
  22.050   19.12    2.55   -1.25   0.000   0.200   0.000    0.00
  22.100   19.78    5.47   -0.25   0.000   0.200   0.000    0.00
  22.150   19.72    5.30   -0.64   0.000   0.200   0.000    0.00
  22.200   19.45    5.46   -1.04   0.000   0.200   0.000    0.00
  22.250   19.68    4.54   -0.82   0.000   0.200   0.000    0.00
  22.300   19.65    2.41   -0.33   0.000   0.200   0.000    0.00
  22.350   20.08    5.01    0.15   0.000   0.200   0.000    0.00
  22.400   19.66    3.46    0.28   0.000   0.200   0.000    0.00
  22.450   19.11    3.81    0.89   0.000   0.200   0.000    0.00
  22.500   17.72    4.57    1.07   0.000   0.200   0.000    0.00
  22.550   17.61    2.41    0.70   0.000   0.200   0.000    0.00
  22.600   17.93    0.40    0.90   0.000   0.200   0.000    0.00
  22.650   18.96    1.21    0.78   0.000   0.200   0.000    0.00
  22.700   18.86    1.52    1.38   0.000   0.200   0.000    0.00