! This hub-height wind-speed file was generated by TurbSim (from OpenFAST--128-NOTFOUND) on 04-Nov-2023 at 13:31:40.
!
! The requested statistics for this data were:
!    Mean Total Wind Speed =   20.000 m/s
!    Turbulence Intensity  =   14.420%
!
!   Time  HorSpd  WndDir  VerSpd  HorShr  VerShr  LnVShr  GstSpd
!  (sec)   (m/s)   (deg)   (m/s)     (-)     (-)     (-)   (m/s)
   0.000   18.39   -1.23    1.74   0.000   0.200   0.000    0.00
   0.050   18.17    2.15    1.38   0.000   0.200   0.000    0.00
   0.100   17.83   -2.50    0.85   0.000   0.200   0.000    0.00
   0.150   18.85   -4.30    0.87   0.000   0.200   0.000    0.00
   0.200   19.91   -4.68    1.24   0.000   0.200   0.000    0.00
   0.250   18.52   -4.55    1.62   0.000   0.200   0.000    0.00
   0.300   19.68   -5.57    0.98   0.000   0.200   0.000    0.00
   0.350   20.61   -4.01    1.59   0.000   0.200   0.000    0.00
   0.400   19.25   -5.28    1.34   0.000   0.200   0.000    0.00
   0.450   18.40   -6.67    1.03   0.000   0.200   0.000    0.00
   0.500   18.97   -7.27    0.49   0.000   0.200   0.000    0.00
   0.550   19.14   -4.71   -0.31   0.000   0.200   0.000    0.00
   0.600   19.78   -6.29    0.61   0.000   0.200   0.000    0.00
   0.650   19.76   -7.64    1.23   0.000   0.200   0.000    0.00
   0.700   18.91   -6.49    1.43   0.000   0.200   0.000    0.00
   0.750   19.29   -6.85    1.89   0.000   0.200   0.000    0.00
   0.800   19.46   -6.96    1.12   0.000   0.200   0.000    0.00
   0.850   19.39   -5.10    0.54   0.000   0.200   0.000    0.00
   0.900   19.25   -5.67    0.14   0.000   0.200   0.000    0.00
   0.950   20.11   -5.28   -0.61   0.000   0.200   0.000    0.00
   1.000   20.79   -3.26   -0.89   0.000   0.200   0.000    0.00
   1.050   20.54   -2.11    0.16   0.000   0.200   0.000    0.00
   1.100   20.01   -3.97    0.23   0.000   0.200   0.000    0.00
   1.150   20.29   -4.32    0.48   0.000   0.200   0.000    0.00
   1.200   19.47   -3.79    0.95   0.000   0.200   0.000    0.00
   1.250   19.71   -3.32    1.21   0.000   0.200   0.000    0.00
   1.300   19.58   -2.56    0.14   0.000   0.200   0.000    0.00
   1.350   19.18   -1.34    0.60   0.000   0.200   0.000    0.00
   1.400   19.62   -1.47    0.44   0.000   0.200   0.000    0.00
   1.450   19.95   -3.21    0.48   0.000   0.200   0.000    0.00
   1.500   20.04    0.30   -0.42   0.000   0.200   0.000    0.00
   1.550   20.59   -0.97    0.08   0.000   0.200   0.000    0.00
   1.600   20.41   -3.89   -0.21   0.000   0.200   0.000    0.00
   1.650   20.55   -1.47    0.75   0.000   0.200   0.000    0.00
   1.700   20.75   -4.68    0.95   0.000   0.200   0.000    0.00
   1.750   20.74   -6.35    0.52   0.000   0.200   0.000    0.00
   1.800   19.85   -4.22   -0.68   0.000   0.200   0.000    0.00
   1.850   20.37   -4.57   -0.72   0.000   0.200   0.000    0.00
   1.900   21.20   -0.65   -0.89   0.000   0.200   0.000    0.00
   1.950   21.60    1.62   -0.65   0.000   0.200   0.000    0.00
   2.000   20.79    5.93    0.38   0.000   0.200   0.000    0.00
   2.050   21.37    7.35    1.04   0.000   0.200   0.000    0.00
   2.100   21.58    9.48    0.74   0.000   0.200   0.000    0.00
   2.150   21.01    8.25    0.46   0.000   0.200   0.000    0.00
   2.200   20.73    8.52   -1.60   0.000   0.200   0.000    0.00
   2.250   19.93    9.86   -1.64   0.000   0.200   0.000    0.00
   2.300   20.58   10.07   -2.23   0.000   0.200   0.000    0.00
   2.350   21.14    7.38   -2.31   0.000   0.200   0.000    0.00
   2.400   21.67    8.02   -2.36   0.000   0.200   0.000    0.00
   2.450   22.11    6.13   -2.07   0.000   0.200   0.000    0.00
   2.500   22.15    5.26   -2.32   0.000   0.200   0.000    0.00
   2.550   22.34    5.28   -2.60   0.000   0.200   0.000    0.00
   2.600   22.49    5.80   -2.47   0.000   0.200   0.000    0.00
   2.650   21.73    9.35   -1.94   0.000   0.200   0.000    0.00
   2.700   22.24   10.81   -1.34   0.000   0.200   0.000    0.00
   2.750   21.87   10.53   -1.28   0.000   0.200   0.000    0.00
   2.800   22.93   10.09   -0.87   0.000   0.200   0.000    0.00
   2.850   22.40    8.84   -0.48   0.000   0.200   0.000    0.00
   2.900   21.62    8.58   -0.68   0.000   0.200   0.000    0.00
   2.950   21.85    7.99   -2.14   0.000   0.200   0.000    0.00
   3.000   21.62    7.77   -3.48   0.000   0.200   0.000    0.00
   3.050   21.83   12.39   -3.50   0.000   0.200   0.000    0.00
   3.100   22.04   10.85   -3.08   0.000   0.200   0.000    0.00
   3.150   21.14   11.98   -3.18   0.000   0.200   0.000    0.00
   3.200   21.52   12.06   -3.49   0.000   0.200   0.000    0.00
   3.250   20.89   11.69   -4.34   0.000   0.200   0.000    0.00
   3.300   21.02    8.88   -4.09   0.000   0.200   0.000    0.00
   3.350   20.25    6.42   -4.05   0.000   0.200   0.000    0.00
   3.400   20.03    5.19   -3.44   0.000   0.200   0.000    0.00
   3.450   19.50    1.48   -3.48   0.000   0.200   0.000    0.00
   3.500   19.78    2.89   -3.45   0.000   0.200   0.000    0.00
   3.550   19.95    5.08   -2.97   0.000   0.200   0.000    0.00
   3.600   20.50    4.23   -4.48   0.000   0.200   0.000    0.00
   3.650   20.71    5.39   -4.14   0.000   0.200   0.000    0.00
   3.700   21.05    5.38   -4.41   0.000   0.200   0.000    0.00
   3.750   20.60    5.46   -3.41   0.000   0.200   0.000    0.00
   3.800   20.36    4.63   -4.51   0.000   0.200   0.000    0.00
   3.850   20.38    6.85   -4.68   0.000   0.200   0.000    0.00
   3.900   19.90    8.59   -4.67   0.000   0.200   0.000    0.00
   3.950   19.57    9.83   -5.13   0.000   0.200   0.000    0.00
   4.000   19.00    8.42   -4.83   0.000   0.200   0.000    0.00
   4.050   20.11    9.07   -4.93   0.000   0.200   0.000    0.00
   4.100   20.21   10.38   -4.71   0.000   0.200   0.000    0.00
   4.150   20.10    9.09   -3.82   0.000   0.200   0.000    0.00
   4.200   20.18    7.56   -3.56   0.000   0.200   0.000    0.00
   4.250   19.63    8.77   -3.09   0.000   0.200   0.000    0.00
   4.300   20.39    7.50   -2.60   0.000   0.200   0.000    0.00
   4.350   20.79    6.38   -3.24   0.000   0.200   0.000    0.00
   4.400   20.84    2.93   -3.87   0.000   0.200   0.000    0.00
   4.450   21.08    3.97   -3.70   0.000   0.200   0.000    0.00
   4.500   20.48    8.10   -4.55   0.000   0.200   0.000    0.00
   4.550   20.00   10.94   -4.77   0.000   0.200   0.000    0.00
   4.600   19.81    9.56   -5.59   0.000   0.200   0.000    0.00
   4.650   19.51   10.83   -5.63   0.000   0.200   0.000    0.00
   4.700   19.92   12.36   -5.01   0.000   0.200   0.000    0.00
   4.750   19.30   10.93   -4.46   0.000   0.200   0.000    0.00
   4.800   18.99    5.30   -5.05   0.000   0.200   0.000    0.00
   4.850   18.55    7.04   -5.46   0.000   0.200   0.000    0.00
   4.900   18.95    7.25   -5.30   0.000   0.200   0.000    0.00
   4.950   18.39    8.47   -5.28   0.000   0.200   0.000    0.00
   5.000   18.51    8.80   -5.65   0.000   0.200   0.000    0.00
   5.050   18.76    7.06   -4.52   0.000   0.200   0.000    0.00
   5.100   19.36    7.51   -4.96   0.000   0.200   0.000    0.00
   5.150   19.70    6.96   -4.83   0.000   0.200   0.000    0.00
   5.200   19.62    2.91   -3.27   0.000   0.200   0.000    0.00
   5.250   19.15    3.88   -2.18   0.000   0.200   0.000    0.00
   5.300   20.27    3.59   -3.46   0.000   0.200   0.000    0.00
   5.350   21.45    2.16   -3.19   0.000   0.200   0.000    0.00
   5.400   20.33    5.52   -3.57   0.000   0.200   0.000    0.00
   5.450   19.74    5.22   -3.98   0.000   0.200   0.000    0.00
   5.500   20.09    4.84   -3.61   0.000   0.200   0.000    0.00
   5.550   20.83    6.97   -3.34   0.000   0.200   0.000    0.00
   5.600   20.75    7.55   -3.62   0.000   0.200   0.000    0.00
   5.650   20.80    6.76   -3.22   0.000   0.200   0.000    0.00
   5.700   20.02    5.46   -2.96   0.000   0.200   0.000    0.00
   5.750   19.96    7.23   -3.28   0.000   0.200   0.000    0.00
   5.800   20.52    6.85   -3.54   0.000   0.200   0.000    0.00
   5.850   18.85    5.92   -3.90   0.000   0.200   0.000    0.00
   5.900   19.08    2.83   -3.46   0.000   0.200   0.000    0.00
   5.950   20.26    3.90   -3.93   0.000   0.200   0.000    0.00
   6.000   20.74    4.69   -3.77   0.000   0.200   0.000    0.00
   6.050   20.71    5.27   -4.02   0.000   0.200   0.000    0.00
   6.100   20.92    5.82   -4.66   0.000   0.200   0.000    0.00
   6.150   21.31    4.12   -4.12   0.000   0.200   0.000    0.00
   6.200   21.79    3.47   -3.74   0.000   0.200   0.000    0.00
   6.250   21.61    4.82   -2.89   0.000   0.200   0.000    0.00
   6.300   21.35    7.84   -3.19   0.000   0.200   0.000    0.00
   6.350   20.76    9.62   -3.50   0.000   0.200   0.000    0.00
   6.400   20.99    7.58   -3.33   0.000   0.200   0.000    0.00
   6.450   21.01    6.78   -4.40   0.000   0.200   0.000    0.00
   6.500   20.50    5.09   -2.85   0.000   0.200   0.000    0.00
   6.550   21.33    3.91   -2.26   0.000   0.200   0.000    0.00
   6.600   20.98    2.92   -1.65   0.000   0.200   0.000    0.00
   6.650   19.84    6.76   -1.38   0.000   0.200   0.000    0.00
   6.700   19.74    8.26   -1.58   0.000   0.200   0.000    0.00
   6.750   20.83    7.96   -1.27   0.000   0.200   0.000    0.00
   6.800   21.08    9.24   -1.85   0.000   0.200   0.000    0.00
   6.850   21.38    8.07   -1.24   0.000   0.200   0.000    0.00
   6.900   21.37    6.60   -1.70   0.000   0.200   0.000    0.00
   6.950   21.13    8.06   -2.05   0.000   0.200   0.000    0.00
   7.000   21.20    8.45   -1.85   0.000   0.200   0.000    0.00
   7.050   21.33    6.36   -1.05   0.000   0.200   0.000    0.00
   7.100   21.21    6.54   -1.99   0.000   0.200   0.000    0.00
   7.150   21.62    5.77   -3.24   0.000   0.200   0.000    0.00
   7.200   21.97    6.02   -3.36   0.000   0.200   0.000    0.00
   7.250   21.48    5.62   -4.05   0.000   0.200   0.000    0.00
   7.300   21.86    6.55   -3.93   0.000   0.200   0.000    0.00
   7.350   21.84    6.60   -5.25   0.000   0.200   0.000    0.00
   7.400   22.18    7.99   -5.44   0.000   0.200   0.000    0.00
   7.450   22.13    9.51   -5.49   0.000   0.200   0.000    0.00
   7.500   21.34    9.72   -5.61   0.000   0.200   0.000    0.00
   7.550   21.15    8.08   -5.73   0.000   0.200   0.000    0.00
   7.600   21.37    9.13   -4.30   0.000   0.200   0.000    0.00
   7.650   21.09    8.43   -3.88   0.000   0.200   0.000    0.00
   7.700   20.29    6.09   -3.95   0.000   0.200   0.000    0.00
   7.750   20.51    6.19   -4.61   0.000   0.200   0.000    0.00
   7.800   20.19    6.22   -5.37   0.000   0.200   0.000    0.00
   7.850   20.49    5.33   -3.91   0.000   0.200   0.000    0.00
   7.900   20.11    6.25   -4.92   0.000   0.200   0.000    0.00
   7.950   20.32    7.22   -4.54   0.000   0.200   0.000    0.00
   8.000   19.50    4.76   -4.26   0.000   0.200   0.000    0.00
   8.050   19.45    3.50   -4.65   0.000   0.200   0.000    0.00
   8.100   19.55    3.86   -4.67   0.000   0.200   0.000    0.00
   8.150   19.92    4.61   -3.32   0.000   0.200   0.000    0.00
   8.200   19.46    5.99   -2.82   0.000   0.200   0.000    0.00
   8.250   19.06    6.33   -3.39   0.000   0.200   0.000    0.00
   8.300   19.69    5.76   -2.73   0.000   0.200   0.000    0.00
   8.350   19.38    4.93   -2.65   0.000   0.200   0.000    0.00
   8.400   20.60    4.84   -1.92   0.000   0.200   0.000    0.00
   8.450   19.43    3.61   -1.01   0.000   0.200   0.000    0.00
   8.500   19.45    4.78   -1.81   0.000   0.200   0.000    0.00
   8.550   19.67    4.65   -3.00   0.000   0.200   0.000    0.00
   8.600   19.19    1.73   -3.92   0.000   0.200   0.000    0.00
   8.650   19.99    2.14   -3.85   0.000   0.200   0.000    0.00
   8.700   19.71    5.20   -2.72   0.000   0.200   0.000    0.00
   8.750   20.05    1.91   -3.51   0.000   0.200   0.000    0.00
   8.800   20.47    2.75   -3.39   0.000   0.200   0.000    0.00
   8.850   20.33    5.06   -2.91   0.000   0.200   0.000    0.00
   8.900   21.40    4.11   -3.20   0.000   0.200   0.000    0.00
   8.950   21.10    5.11   -2.76   0.000   0.200   0.000    0.00
   9.000   21.25    5.44   -2.97   0.000   0.200   0.000    0.00
   9.050   21.15    2.39   -2.66   0.000   0.200   0.000    0.00
   9.100   21.05    4.95   -2.22   0.000   0.200   0.000    0.00
   9.150   20.79    5.77   -2.29   0.000   0.200   0.000    0.00
   9.200   21.52    8.73   -2.03   0.000   0.200   0.000    0.00
   9.250   22.64    8.72   -1.98   0.000   0.200   0.000    0.00
   9.300   22.52    6.76   -3.27   0.000   0.200   0.000    0.00
   9.350   22.01    8.65   -3.35   0.000   0.200   0.000    0.00
   9.400   22.45    9.90   -2.50   0.000   0.200   0.000    0.00
   9.450   22.33    6.93   -1.91   0.000   0.200   0.000    0.00
   9.500   22.71    4.84   -1.66   0.000   0.200   0.000    0.00
   9.550   22.10    6.48   -2.13   0.000   0.200   0.000    0.00
   9.600   22.48    5.97   -2.50   0.000   0.200   0.000    0.00
   9.650   22.79    6.57   -3.36   0.000   0.200   0.000    0.00
   9.700   22.34    8.79   -3.77   0.000   0.200   0.000    0.00
   9.750   21.76    8.85   -2.55   0.000   0.200   0.000    0.00
   9.800   21.53    4.73   -2.21   0.000   0.200   0.000    0.00
   9.850   21.64    6.30   -2.11   0.000   0.200   0.000    0.00
   9.900   21.23    5.48   -3.16   0.000   0.200   0.000    0.00
   9.950   21.94    4.91   -2.90   0.000   0.200   0.000    0.00
  10.000   22.43    6.38   -2.96   0.000   0.200   0.000    0.00
  10.050   22.35    7.87   -1.39   0.000   0.200   0.000    0.00
  10.100   22.00    7.84   -1.45   0.000   0.200   0.000    0.00
  10.150   22.03    8.21   -2.21   0.000   0.200   0.000    0.00
  10.200   21.75    9.44   -3.32   0.000   0.200   0.000    0.00
  10.250   21.65    8.85   -3.35   0.000   0.200   0.000    0.00
  10.300   22.32    7.61   -3.53   0.000   0.200   0.000    0.00
  10.350   21.49    4.98   -4.28   0.000   0.200   0.000    0.00
  10.400   21.43    3.90   -4.06   0.000   0.200   0.000    0.00
  10.450   21.32    1.90   -4.28   0.000   0.200   0.000    0.00
  10.500   20.91    2.27   -3.68   0.000   0.200   0.000    0.00
  10.550   21.51    1.84   -2.77   0.000   0.200   0.000    0.00
  10.600   21.81    2.23   -2.29   0.000   0.200   0.000    0.00
  10.650   22.43    3.80   -3.53   0.000   0.200   0.000    0.00
  10.700   22.96    3.29   -2.69   0.000   0.200   0.000    0.00
  10.750   22.87    4.43   -2.84   0.000   0.200   0.000    0.00
  10.800   22.83    3.99   -2.66   0.000   0.200   0.000    0.00
  10.850   22.86    1.92   -3.16   0.000   0.200   0.000    0.00
  10.900   22.14    2.94   -3.67   0.000   0.200   0.000    0.00
  10.950   22.65    3.72   -2.09   0.000   0.200   0.000    0.00
  11.000   22.41    3.80   -1.48   0.000   0.200   0.000    0.00
  11.050   22.78    4.28   -2.00   0.000   0.200   0.000    0.00
  11.100   23.15    2.76   -2.51   0.000   0.200   0.000    0.00
  11.150   23.40    1.49   -2.49   0.000   0.200   0.000    0.00
  11.200   23.23   -0.24   -2.41   0.000   0.200   0.000    0.00
  11.250   23.57    1.64   -1.98   0.000   0.200   0.000    0.00
  11.300   24.38   -1.67   -1.96   0.000   0.200   0.000    0.00
  11.350   24.03   -1.36   -2.74   0.000   0.200   0.000    0.00
  11.400   24.80   -1.56   -3.45   0.000   0.200   0.000    0.00
  11.450   24.68   -2.06   -3.28   0.000   0.200   0.000    0.00
  11.500   24.67   -4.25   -4.29   0.000   0.200   0.000    0.00
  11.550   24.16   -6.08   -4.34   0.000   0.200   0.000    0.00
  11.600   24.29   -5.35   -4.81   0.000   0.200   0.000    0.00
  11.650   24.06   -4.72   -5.19   0.000   0.200   0.000    0.00
  11.700   23.68   -3.50   -5.04   0.000   0.200   0.000    0.00
  11.750   24.03   -3.14   -4.81   0.000   0.200   0.000    0.00
  11.800   24.79   -5.19   -3.81   0.000   0.200   0.000    0.00
  11.850   24.11   -3.00   -4.06   0.000   0.200   0.000    0.00
  11.900   25.17   -1.31   -4.94   0.000   0.200   0.000    0.00
  11.950   25.10   -1.65   -4.61   0.000   0.200   0.000    0.00
  12.000   23.76   -3.58   -4.81   0.000   0.200   0.000    0.00
  12.050   24.07   -2.40   -4.10   0.000   0.200   0.000    0.00
  12.100   23.53   -3.99   -4.40   0.000   0.200   0.000    0.00
  12.150   23.72   -3.29   -4.74   0.000   0.200   0.000    0.00
  12.200   23.93   -1.71   -4.87   0.000   0.200   0.000    0.00
  12.250   23.54   -0.42   -5.61   0.000   0.200   0.000    0.00
  12.300   23.99   -0.24   -5.62   0.000   0.200   0.000    0.00
  12.350   24.62    0.64   -4.16   0.000   0.200   0.000    0.00
  12.400   24.81   -2.90   -4.01   0.000   0.200   0.000    0.00
  12.450   24.95   -1.81   -3.24   0.000   0.200   0.000    0.00
  12.500   24.66   -1.13   -2.77   0.000   0.200   0.000    0.00
  12.550   24.98   -1.30   -2.04   0.000   0.200   0.000    0.00
  12.600   25.37    0.72   -1.49   0.000   0.200   0.000    0.00
  12.650   24.04   -1.33   -1.71   0.000   0.200   0.000    0.00
  12.700   23.54   -1.85   -0.93   0.000   0.200   0.000    0.00
  12.750   23.63   -2.79   -1.27   0.000   0.200   0.000    0.00
  12.800   23.76   -0.84   -1.02   0.000   0.200   0.000    0.00
  12.850   23.67   -2.47   -1.36   0.000   0.200   0.000    0.00
  12.900   23.57   -0.37   -1.76   0.000   0.200   0.000    0.00
  12.950   24.17    0.12   -1.97   0.000   0.200   0.000    0.00
  13.000   23.79    1.92   -1.41   0.000   0.200   0.000    0.00
  13.050   22.67    2.98   -1.10   0.000   0.200   0.000    0.00
  13.100   21.86    2.02   -0.88   0.000   0.200   0.000    0.00
  13.150   21.16    2.41   -1.04   0.000   0.200   0.000    0.00
  13.200   21.63   -0.43   -0.38   0.000   0.200   0.000    0.00
  13.250   21.21   -0.46   -1.36   0.000   0.200   0.000    0.00
  13.300   21.08   -0.98   -1.25   0.000   0.200   0.000    0.00
  13.350   20.46   -2.67   -0.96   0.000   0.200   0.000    0.00
  13.400   20.95    0.66   -0.62   0.000   0.200   0.000    0.00
  13.450   20.94    3.23   -0.51   0.000   0.200   0.000    0.00
  13.500   21.37    1.45   -0.10   0.000   0.200   0.000    0.00
  13.550   21.50    0.59   -0.66   0.000   0.200   0.000    0.00
  13.600   22.94    3.84   -1.38   0.000   0.200   0.000    0.00
  13.650   23.00    4.09   -2.81   0.000   0.200   0.000    0.00
  13.700   21.87    4.62   -1.97   0.000   0.200   0.000    0.00
  13.750   21.21    6.25   -1.94   0.000   0.200   0.000    0.00
  13.800   20.84    5.66   -1.54   0.000   0.200   0.000    0.00
  13.850   20.84    4.73   -1.69   0.000   0.200   0.000    0.00
  13.900   20.67    5.68   -0.77   0.000   0.200   0.000    0.00
  13.950   21.02    4.19   -0.49   0.000   0.200   0.000    0.00
  14.000   21.24    2.14   -1.04   0.000   0.200   0.000    0.00
  14.050   20.76    3.52   -0.40   0.000   0.200   0.000    0.00
  14.100   20.86    4.19   -0.14   0.000   0.200   0.000    0.00
  14.150   20.07    3.44    0.65   0.000   0.200   0.000    0.00
  14.200   19.10    3.96    1.04   0.000   0.200   0.000    0.00
  14.250   19.84    2.99    1.23   0.000   0.200   0.000    0.00
  14.300   20.40    3.33    0.87   0.000   0.200   0.000    0.00
  14.350   21.01    0.43   -0.51   0.000   0.200   0.000    0.00
  14.400   20.95    5.11   -1.70   0.000   0.200   0.000    0.00
  14.450   20.75    5.14   -1.34   0.000   0.200   0.000    0.00
  14.500   20.41    4.48    0.04   0.000   0.200   0.000    0.00
  14.550   20.00    3.91    0.05   0.000   0.200   0.000    0.00
  14.600   20.21    3.90    0.71   0.000   0.200   0.000    0.00
  14.650   19.98    2.62   -0.24   0.000   0.200   0.000    0.00
  14.700   21.17    0.00   -0.79   0.000   0.200   0.000    0.00
  14.750   21.63   -2.46   -0.04   0.000   0.200   0.000    0.00
  14.800   21.27   -2.09   -0.81   0.000   0.200   0.000    0.00
  14.850   21.35   -1.85   -0.10   0.000   0.200   0.000    0.00
  14.900   21.59    0.21    0.22   0.000   0.200   0.000    0.00
  14.950   21.00    1.63    0.24   0.000   0.200   0.000    0.00
  15.000   21.00    2.84    0.35   0.000   0.200   0.000    0.00
  15.050   20.45   -0.00    0.77   0.000   0.200   0.000    0.00
  15.100   19.96   -0.54    1.08   0.000   0.200   0.000    0.00
  15.150   20.44    2.12    1.13   0.000   0.200   0.000    0.00
  15.200   20.90    0.67    1.88   0.000   0.200   0.000    0.00
  15.250   20.90   -0.04    2.04   0.000   0.200   0.000    0.00
  15.300   21.04   -0.02    0.94   0.000   0.200   0.000    0.00
  15.350   20.73   -4.54    0.39   0.000   0.200   0.000    0.00
  15.400   19.86   -4.51    0.38   0.000   0.200   0.000    0.00
  15.450   20.13   -0.95    0.82   0.000   0.200   0.000    0.00
  15.500   19.07   -0.48   -0.11   0.000   0.200   0.000    0.00
  15.550   19.16    1.35   -0.79   0.000   0.200   0.000    0.00
  15.600   19.03    0.17   -0.79   0.000   0.200   0.000    0.00
  15.650   18.86   -0.50   -0.83   0.000   0.200   0.000    0.00
  15.700   18.38    1.25    0.44   0.000   0.200   0.000    0.00
  15.750   18.65    1.09    0.40   0.000   0.200   0.000    0.00
  15.800   18.37    1.99    0.44   0.000   0.200   0.000    0.00
  15.850   18.32    1.67   -0.43   0.000   0.200   0.000    0.00
  15.900   18.15    0.91   -0.72   0.000   0.200   0.000    0.00
  15.950   18.43   -2.04   -0.00   0.000   0.200   0.000    0.00
  16.000   18.94   -1.06   -0.01   0.000   0.200   0.000    0.00
  16.050   19.00   -3.30    1.51   0.000   0.200   0.000    0.00
  16.100   20.03   -3.77    1.56   0.000   0.200   0.000    0.00
  16.150   20.49   -3.80    0.42   0.000   0.200   0.000    0.00
  16.200   21.25   -2.20   -0.22   0.000   0.200   0.000    0.00
  16.250   20.59   -1.16    0.16   0.000   0.200   0.000    0.00
  16.300   21.05    1.85   -0.22   0.000   0.200   0.000    0.00
  16.350   21.40    0.54   -0.10   0.000   0.200   0.000    0.00
  16.400   21.86    1.69    0.19   0.000   0.200   0.000    0.00
  16.450   21.15    4.42    0.51   0.000   0.200   0.000    0.00
  16.500   21.55    5.44    0.79   0.000   0.200   0.000    0.00
  16.550   21.66    5.52    1.42   0.000   0.200   0.000    0.00
  16.600   20.87    2.62    1.26   0.000   0.200   0.000    0.00
  16.650   19.79    0.22    1.35   0.000   0.200   0.000    0.00
  16.700   20.57   -0.13    1.16   0.000   0.200   0.000    0.00
  16.750   21.59   -0.05    1.39   0.000   0.200   0.000    0.00
  16.800   22.11   -0.41   -0.09   0.000   0.200   0.000    0.00
  16.850   23.12    0.46    0.88   0.000   0.200   0.000    0.00
  16.900   22.00    2.52    1.70   0.000   0.200   0.000    0.00
  16.950   21.18    2.97    2.02   0.000   0.200   0.000    0.00
  17.000   21.60    3.59    2.26   0.000   0.200   0.000    0.00
  17.050   21.79    3.50    0.76   0.000   0.200   0.000    0.00
  17.100   21.06    4.57    0.67   0.000   0.200   0.000    0.00
  17.150   21.62    4.99    1.02   0.000   0.200   0.000    0.00
  17.200   21.84    1.77    1.49   0.000   0.200   0.000    0.00
  17.250   22.85    2.21    1.00   0.000   0.200   0.000    0.00
  17.300   22.47    5.81    1.22   0.000   0.200   0.000    0.00
  17.350   21.90    5.10    1.19   0.000   0.200   0.000    0.00
  17.400   20.97    6.02    1.06   0.000   0.200   0.000    0.00
  17.450   22.16    3.41    1.01   0.000   0.200   0.000    0.00
  17.500   22.53    3.42    0.05   0.000   0.200   0.000    0.00
  17.550   22.86    5.25   -0.80   0.000   0.200   0.000    0.00
  17.600   22.87    4.46   -0.61   0.000   0.200   0.000    0.00
  17.650   21.66    1.24    0.46   0.000   0.200   0.000    0.00
  17.700   21.40    2.89    0.93   0.000   0.200   0.000    0.00
  17.750   20.77    6.67    1.22   0.000   0.200   0.000    0.00
  17.800   20.71    7.45    0.81   0.000   0.200   0.000    0.00
  17.850   21.63    4.34    2.32   0.000   0.200   0.000    0.00
  17.900   20.78    0.64    3.52   0.000   0.200   0.000    0.00
  17.950   19.39    0.36    3.62   0.000   0.200   0.000    0.00
  18.000   20.06    2.55    2.71   0.000   0.200   0.000    0.00
  18.050   20.58    1.50    1.07   0.000   0.200   0.000    0.00
  18.100   20.34    0.57    0.58   0.000   0.200   0.000    0.00
  18.150   19.58    1.29    0.96   0.000   0.200   0.000    0.00
  18.200   19.68   -0.88    2.48   0.000   0.200   0.000    0.00
  18.250   20.29   -1.36    2.80   0.000   0.200   0.000    0.00
  18.300   20.84   -1.49    2.58   0.000   0.200   0.000    0.00
  18.350   20.52   -1.83    2.42   0.000   0.200   0.000    0.00
  18.400   19.44   -1.15    1.56   0.000   0.200   0.000    0.00
  18.450   20.02    0.25    2.11   0.000   0.200   0.000    0.00
  18.500   20.18   -0.86    2.04   0.000   0.200   0.000    0.00
  18.550   19.97   -0.63    3.10   0.000   0.200   0.000    0.00
  18.600   19.77   -0.85    2.14   0.000   0.200   0.000    0.00
  18.650   19.56   -3.82    1.82   0.000   0.200   0.000    0.00
  18.700   20.12   -2.43    1.25   0.000   0.200   0.000    0.00
  18.750   19.30   -2.51    1.50   0.000   0.200   0.000    0.00
  18.800   19.59    0.77    1.09   0.000   0.200   0.000    0.00
  18.850   19.75    1.54    1.15   0.000   0.200   0.000    0.00
  18.900   19.47   -1.06    0.46   0.000   0.200   0.000    0.00
  18.950   20.46   -2.95    0.61   0.000   0.200   0.000    0.00
  19.000   21.57   -3.59    0.35   0.000   0.200   0.000    0.00
  19.050   21.15   -2.31    0.24   0.000   0.200   0.000    0.00
  19.100   21.25   -2.07   -0.82   0.000   0.200   0.000    0.00
  19.150   20.89   -2.18   -1.51   0.000   0.200   0.000    0.00
  19.200   21.13    0.35   -1.62   0.000   0.200   0.000    0.00
  19.250   20.55    1.88   -2.13   0.000   0.200   0.000    0.00
  19.300   20.51    0.73   -1.15   0.000   0.200   0.000    0.00
  19.350   20.68    4.23    0.95   0.000   0.200   0.000    0.00
  19.400   20.09    6.78    0.77   0.000   0.200   0.000    0.00
  19.450   20.08    5.67    0.78   0.000   0.200   0.000    0.00
  19.500   19.21    5.55    0.11   0.000   0.200   0.000    0.00
  19.550   19.48    6.04    1.39   0.000   0.200   0.000    0.00
  19.600   20.17    5.29    1.56   0.000   0.200   0.000    0.00
  19.650   19.59    6.01    1.39   0.000   0.200   0.000    0.00
  19.700   19.01    7.14    0.89   0.000   0.200   0.000    0.00
  19.750   18.74    6.45    0.94   0.000   0.200   0.000    0.00
  19.800   18.88    9.94    1.17   0.000   0.200   0.000    0.00
  19.850   19.47    7.87    0.93   0.000   0.200   0.000    0.00
  19.900   18.86    7.36    1.16   0.000   0.200   0.000    0.00
  19.950   18.88    6.47    0.12   0.000   0.200   0.000    0.00
  20.000   19.12    6.26   -0.04   0.000   0.200   0.000    0.00
  20.050   19.28    6.43    0.16   0.000   0.200   0.000    0.00
  20.100   18.15    4.05    0.33   0.000   0.200   0.000    0.00
  20.150   18.42    3.51    0.86   0.000   0.200   0.000    0.00
  20.200   19.73    1.05    0.25   0.000   0.200   0.000    0.00
  20.250   19.69   -0.08    0.17   0.000   0.200   0.000    0.00
  20.300   19.04   -1.99   -0.80   0.000   0.200   0.000    0.00
  20.350   19.57   -4.23   -0.21   0.000   0.200   0.000    0.00
  20.400   18.53   -0.46   -0.23   0.000   0.200   0.000    0.00
  20.450   18.59    1.41   -0.18   0.000   0.200   0.000    0.00
  20.500   17.64   -1.48    1.40   0.000   0.200   0.000    0.00
  20.550   18.32   -2.72    1.92   0.000   0.200   0.000    0.00
  20.600   18.10   -1.49    1.95   0.000   0.200   0.000    0.00
  20.650   19.17   -0.13    2.65   0.000   0.200   0.000    0.00
  20.700   19.60   -1.36    2.01   0.000   0.200   0.000    0.00
  20.750   19.15   -1.69    1.39   0.000   0.200   0.000    0.00
  20.800   19.16   -1.34    1.68   0.000   0.200   0.000    0.00
  20.850   19.04   -4.79    2.05   0.000   0.200   0.000    0.00
  20.900   19.97   -4.08    0.83   0.000   0.200   0.000    0.00
  20.950   20.59   -4.15    2.03   0.000   0.200   0.000    0.00
  21.000   20.73    0.89    3.80   0.000   0.200   0.000    0.00
  21.050   20.67    1.70    2.88   0.000   0.200   0.000    0.00
  21.100   20.79    3.99    3.11   0.000   0.200   0.000    0.00
  21.150   20.89    4.10    2.56   0.000   0.200   0.000    0.00
  21.200   20.17    2.81    2.21   0.000   0.200   0.000    0.00
  21.250   19.52    2.04    1.41   0.000   0.200   0.000    0.00
  21.300   19.25    0.69    1.08   0.000   0.200   0.000    0.00
  21.350   20.46   -0.55    2.06   0.000   0.200   0.000    0.00
  21.400   20.20   -0.37    1.32   0.000   0.200   0.000    0.00
  21.450   20.02   -2.13    0.61   0.000   0.200   0.000    0.00
  21.500   20.85   -3.12    0.76   0.000   0.200   0.000    0.00
  21.550   21.03   -2.52    1.23   0.000   0.200   0.000    0.00
  21.600   21.04    0.73    1.25   0.000   0.200   0.000    0.00
  21.650   21.74    0.72    1.26   0.000   0.200   0.000    0.00
  21.700   20.76    2.78    1.16   0.000   0.200   0.000    0.00
  21.750   20.56    2.96    0.89   0.000   0.200   0.000    0.00
  21.800   20.31    4.93    0.27   0.000   0.200   0.000    0.00
  21.850   20.22    4.40    1.95   0.000   0.200   0.000    0.00
  21.900   20.12    3.51    2.73   0.000   0.200   0.000    0.00
  21.950   20.27    3.44    2.68   0.000   0.200   0.000    0.00
  22.000   21.15    4.50    2.95   0.000   0.200   0.000    0.00
  22.050   21.13    2.67    2.96   0.000   0.200   0.000    0.00
  22.100   20.68    4.78    3.25   0.000   0.200   0.000    0.00
  22.150   20.52    4.12    2.48   0.000   0.200   0.000    0.00
  22.200   20.54    4.88    2.16   0.000   0.200   0.000    0.00
  22.250   20.06    3.09    1.59   0.000   0.200   0.000    0.00
  22.300   20.31    1.80    0.66   0.000   0.200   0.000    0.00
  22.350   21.18    3.30    0.44   0.000   0.200   0.000    0.00
  22.400   21.23    4.42    0.50   0.000   0.200   0.000    0.00
  22.450   21.45    2.49    0.30   0.000   0.200   0.000    0.00
  22.500   20.75    1.25    0.72   0.000   0.200   0.000    0.00
  22.550   20.44    2.79    0.24   0.000   0.200   0.000    0.00
  22.600   20.57    2.59   -0.38   0.000   0.200   0.000    0.00
  22.650   20.76    3.04   -1.49   0.000   0.200   0.000    0.00
  22.700   20.87    2.54   -0.63   0.000   0.200   0.000    0.00