! This hub-height wind-speed file was generated by TurbSim (from OpenFAST--128-NOTFOUND) on 04-Nov-2023 at 13:31:46.
!
! The requested statistics for this data were:
!    Mean Total Wind Speed =   20.000 m/s
!    Turbulence Intensity  =   14.420%
!
!   Time  HorSpd  WndDir  VerSpd  HorShr  VerShr  LnVShr  GstSpd
!  (sec)   (m/s)   (deg)   (m/s)     (-)     (-)     (-)   (m/s)
   0.000   18.60   -2.63   -1.07   0.000   0.200   0.000    0.00
   0.050   19.03   -0.41   -0.73   0.000   0.200   0.000    0.00
   0.100   20.17   -1.61   -0.17   0.000   0.200   0.000    0.00
   0.150   20.67   -3.14    0.30   0.000   0.200   0.000    0.00
   0.200   21.35   -1.94    0.85   0.000   0.200   0.000    0.00
   0.250   20.34   -3.76   -0.46   0.000   0.200   0.000    0.00
   0.300   20.52   -7.50   -0.18   0.000   0.200   0.000    0.00
   0.350   19.77   -6.22   -0.02   0.000   0.200   0.000    0.00
   0.400   20.11   -4.55   -1.26   0.000   0.200   0.000    0.00
   0.450   19.82   -4.36   -1.61   0.000   0.200   0.000    0.00
   0.500   19.24   -6.22   -1.47   0.000   0.200   0.000    0.00
   0.550   19.29   -4.45   -1.70   0.000   0.200   0.000    0.00
   0.600   19.53    1.02   -2.21   0.000   0.200   0.000    0.00
   0.650   19.51    0.08   -3.23   0.000   0.200   0.000    0.00
   0.700   19.72    0.50   -3.24   0.000   0.200   0.000    0.00
   0.750   19.80    0.70   -3.40   0.000   0.200   0.000    0.00
   0.800   19.69   -0.35   -2.53   0.000   0.200   0.000    0.00
   0.850   19.87   -1.02   -2.60   0.000   0.200   0.000    0.00
   0.900   20.37   -3.18   -1.33   0.000   0.200   0.000    0.00
   0.950   20.75   -4.83   -1.49   0.000   0.200   0.000    0.00
   1.000   21.52   -6.74   -1.21   0.000   0.200   0.000    0.00
   1.050   21.36   -5.94   -1.68   0.000   0.200   0.000    0.00
   1.100   21.01   -9.45   -1.43   0.000   0.200   0.000    0.00
   1.150   20.78  -10.11   -0.97   0.000   0.200   0.000    0.00
   1.200   19.81   -9.48   -2.05   0.000   0.200   0.000    0.00
   1.250   19.32  -11.18   -2.18   0.000   0.200   0.000    0.00
   1.300   19.59  -12.17   -1.95   0.000   0.200   0.000    0.00
   1.350   19.71  -11.03   -1.92   0.000   0.200   0.000    0.00
   1.400   19.15  -11.87   -1.44   0.000   0.200   0.000    0.00
   1.450   19.15  -12.81   -1.58   0.000   0.200   0.000    0.00
   1.500   18.88  -11.39   -3.21   0.000   0.200   0.000    0.00
   1.550   18.39  -13.02   -3.48   0.000   0.200   0.000    0.00
   1.600   19.21  -10.56   -3.53   0.000   0.200   0.000    0.00
   1.650   19.47   -8.93   -3.25   0.000   0.200   0.000    0.00
   1.700   20.45   -8.64   -3.90   0.000   0.200   0.000    0.00
   1.750   20.73   -7.42   -4.42   0.000   0.200   0.000    0.00
   1.800   20.78   -8.69   -4.43   0.000   0.200   0.000    0.00
   1.850   20.60   -6.38   -4.98   0.000   0.200   0.000    0.00
   1.900   20.59   -5.05   -3.93   0.000   0.200   0.000    0.00
   1.950   20.32   -7.23   -4.33   0.000   0.200   0.000    0.00
   2.000   20.70   -3.26   -4.99   0.000   0.200   0.000    0.00
   2.050   20.23   -5.06   -4.34   0.000   0.200   0.000    0.00
   2.100   20.02   -6.43   -3.24   0.000   0.200   0.000    0.00
   2.150   20.25   -6.74   -2.58   0.000   0.200   0.000    0.00
   2.200   19.69   -2.85   -2.65   0.000   0.200   0.000    0.00
   2.250   20.09   -2.80   -2.91   0.000   0.200   0.000    0.00
   2.300   19.91   -4.44   -2.09   0.000   0.200   0.000    0.00
   2.350   20.51   -5.49   -2.81   0.000   0.200   0.000    0.00
   2.400   19.92   -3.92   -2.97   0.000   0.200   0.000    0.00
   2.450   21.09   -2.35   -2.63   0.000   0.200   0.000    0.00
   2.500   20.89   -2.99   -2.92   0.000   0.200   0.000    0.00
   2.550   20.72   -6.42   -3.36   0.000   0.200   0.000    0.00
   2.600   20.43   -6.17   -3.50   0.000   0.200   0.000    0.00
   2.650   21.23   -5.80   -3.25   0.000   0.200   0.000    0.00
   2.700   21.02   -5.74   -2.76   0.000   0.200   0.000    0.00
   2.750   20.67   -7.27   -3.09   0.000   0.200   0.000    0.00
   2.800   20.95   -5.99   -3.45   0.000   0.200   0.000    0.00
   2.850   20.86   -5.54   -3.11   0.000   0.200   0.000    0.00
   2.900   20.05   -7.88   -3.26   0.000   0.200   0.000    0.00
   2.950   20.59   -5.62   -3.65   0.000   0.200   0.000    0.00
   3.000   20.33   -7.46   -3.78   0.000   0.200   0.000    0.00
   3.050   20.24  -10.55   -4.59   0.000   0.200   0.000    0.00
   3.100   20.47   -8.97   -3.83   0.000   0.200   0.000    0.00
   3.150   20.00   -8.61   -3.74   0.000   0.200   0.000    0.00
   3.200   19.95   -8.49   -4.12   0.000   0.200   0.000    0.00
   3.250   19.88   -7.04   -3.87   0.000   0.200   0.000    0.00
   3.300   20.97   -7.26   -3.65   0.000   0.200   0.000    0.00
   3.350   20.36   -5.68   -3.04   0.000   0.200   0.000    0.00
   3.400   21.10   -6.93   -2.43   0.000   0.200   0.000    0.00
   3.450   20.38   -7.38   -2.42   0.000   0.200   0.000    0.00
   3.500   20.23   -7.17   -3.47   0.000   0.200   0.000    0.00
   3.550   20.86   -6.38   -4.42   0.000   0.200   0.000    0.00
   3.600   21.15   -5.89   -4.67   0.000   0.200   0.000    0.00
   3.650   20.97   -4.04   -3.45   0.000   0.200   0.000    0.00
   3.700   20.30   -0.80   -2.18   0.000   0.200   0.000    0.00
   3.750   20.31   -4.01   -2.62   0.000   0.200   0.000    0.00
   3.800   20.95   -3.22   -2.71   0.000   0.200   0.000    0.00
   3.850   21.83   -1.71   -3.29   0.000   0.200   0.000    0.00
   3.900   21.19   -1.08   -3.43   0.000   0.200   0.000    0.00
   3.950   20.57    0.29   -3.35   0.000   0.200   0.000    0.00
   4.000   21.09    2.49   -2.85   0.000   0.200   0.000    0.00
   4.050   21.78    1.81   -2.29   0.000   0.200   0.000    0.00
   4.100   21.52    2.50   -3.09   0.000   0.200   0.000    0.00
   4.150   22.40    2.47   -2.20   0.000   0.200   0.000    0.00
   4.200   21.85    1.75   -2.84   0.000   0.200   0.000    0.00
   4.250   22.10    2.26   -3.00   0.000   0.200   0.000    0.00
   4.300   22.66    3.08   -1.93   0.000   0.200   0.000    0.00
   4.350   22.92    3.32   -2.53   0.000   0.200   0.000    0.00
   4.400   22.41    2.25   -3.47   0.000   0.200   0.000    0.00
   4.450   21.77    4.94   -3.64   0.000   0.200   0.000    0.00
   4.500   21.33    1.97   -3.53   0.000   0.200   0.000    0.00
   4.550   22.25   -1.94   -3.92   0.000   0.200   0.000    0.00
   4.600   22.35   -3.17   -2.65   0.000   0.200   0.000    0.00
   4.650   21.88   -4.11   -3.48   0.000   0.200   0.000    0.00
   4.700   21.52   -1.75   -3.71   0.000   0.200   0.000    0.00
   4.750   21.93   -1.15   -3.85   0.000   0.200   0.000    0.00
   4.800   22.71   -0.01   -3.02   0.000   0.200   0.000    0.00
   4.850   22.85   -1.45   -3.11   0.000   0.200   0.000    0.00
   4.900   22.75   -3.10   -3.03   0.000   0.200   0.000    0.00
   4.950   23.66   -3.01   -2.96   0.000   0.200   0.000    0.00
   5.000   24.87   -3.62   -3.65   0.000   0.200   0.000    0.00
   5.050   24.41   -3.27   -2.38   0.000   0.200   0.000    0.00
   5.100   23.90   -4.35   -3.01   0.000   0.200   0.000    0.00
   5.150   24.23   -4.48   -2.84   0.000   0.200   0.000    0.00
   5.200   24.46   -4.52   -2.60   0.000   0.200   0.000    0.00
   5.250   24.35   -4.69   -2.12   0.000   0.200   0.000    0.00
   5.300   24.28   -5.59   -1.91   0.000   0.200   0.000    0.00
   5.350   23.38   -3.27   -3.01   0.000   0.200   0.000    0.00
   5.400   23.10   -2.71   -2.32   0.000   0.200   0.000    0.00
   5.450   24.10   -4.01   -2.00   0.000   0.200   0.000    0.00
   5.500   24.10   -4.60   -2.17   0.000   0.200   0.000    0.00
   5.550   24.86   -4.21   -2.06   0.000   0.200   0.000    0.00
   5.600   25.17   -3.89   -2.68   0.000   0.200   0.000    0.00
   5.650   24.83   -3.91   -3.35   0.000   0.200   0.000    0.00
   5.700   25.21   -2.04   -2.45   0.000   0.200   0.000    0.00
   5.750   24.65   -3.34   -3.08   0.000   0.200   0.000    0.00
   5.800   25.10   -2.73   -3.22   0.000   0.200   0.000    0.00
   5.850   24.91   -2.66   -2.99   0.000   0.200   0.000    0.00
   5.900   23.86   -4.51   -3.01   0.000   0.200   0.000    0.00
   5.950   23.63   -3.33   -1.31   0.000   0.200   0.000    0.00
   6.000   23.20   -4.09   -3.00   0.000   0.200   0.000    0.00
   6.050   22.63   -5.41   -2.69   0.000   0.200   0.000    0.00
   6.100   22.65   -9.44   -1.59   0.000   0.200   0.000    0.00
   6.150   22.49   -8.74   -0.86   0.000   0.200   0.000    0.00
   6.200   22.99   -5.33   -0.72   0.000   0.200   0.000    0.00
   6.250   23.03   -4.77   -0.50   0.000   0.200   0.000    0.00
   6.300   23.52   -6.62   -0.19   0.000   0.200   0.000    0.00
   6.350   24.00   -5.79   -0.58   0.000   0.200   0.000    0.00
   6.400   24.37   -4.33   -1.02   0.000   0.200   0.000    0.00
   6.450   25.04   -4.72   -0.57   0.000   0.200   0.000    0.00
   6.500   24.97   -7.69   -1.15   0.000   0.200   0.000    0.00
   6.550   23.34   -7.74   -1.89   0.000   0.200   0.000    0.00
   6.600   23.15   -6.07   -2.65   0.000   0.200   0.000    0.00
   6.650   23.09   -5.52   -3.73   0.000   0.200   0.000    0.00
   6.700   24.35   -6.50   -4.20   0.000   0.200   0.000    0.00
   6.750   24.11   -5.47   -4.21   0.000   0.200   0.000    0.00
   6.800   24.12   -6.28   -4.73   0.000   0.200   0.000    0.00
   6.850   23.45   -4.60   -4.66   0.000   0.200   0.000    0.00
   6.900   22.87   -6.47   -4.84   0.000   0.200   0.000    0.00
   6.950   22.94   -6.90   -4.99   0.000   0.200   0.000    0.00
   7.000   22.07   -5.15   -5.77   0.000   0.200   0.000    0.00
   7.050   21.57   -5.34   -4.87   0.000   0.200   0.000    0.00
   7.100   20.58   -5.98   -3.58   0.000   0.200   0.000    0.00
   7.150   20.76   -6.80   -4.04   0.000   0.200   0.000    0.00
   7.200   21.27   -7.09   -4.88   0.000   0.200   0.000    0.00
   7.250   21.12   -7.92   -3.72   0.000   0.200   0.000    0.00
   7.300   19.09   -9.84   -3.64   0.000   0.200   0.000    0.00
   7.350   20.33   -9.23   -3.86   0.000   0.200   0.000    0.00
   7.400   20.79   -8.79   -4.77   0.000   0.200   0.000    0.00
   7.450   20.74   -7.72   -5.97   0.000   0.200   0.000    0.00
   7.500   19.78   -5.93   -5.93   0.000   0.200   0.000    0.00
   7.550   19.77   -7.78   -5.22   0.000   0.200   0.000    0.00
   7.600   20.08   -9.44   -5.94   0.000   0.200   0.000    0.00
   7.650   20.08   -9.61   -5.36   0.000   0.200   0.000    0.00
   7.700   19.87  -10.00   -5.86   0.000   0.200   0.000    0.00
   7.750   19.33   -8.33   -6.23   0.000   0.200   0.000    0.00
   7.800   19.31   -5.15   -7.61   0.000   0.200   0.000    0.00
   7.850   19.22   -6.33   -7.61   0.000   0.200   0.000    0.00
   7.900   19.09   -6.59   -6.35   0.000   0.200   0.000    0.00
   7.950   19.37   -9.91   -6.88   0.000   0.200   0.000    0.00
   8.000   19.06   -9.71   -7.17   0.000   0.200   0.000    0.00
   8.050   19.54   -9.05   -7.59   0.000   0.200   0.000    0.00
   8.100   19.93   -8.36   -7.29   0.000   0.200   0.000    0.00
   8.150   19.24   -9.07   -7.70   0.000   0.200   0.000    0.00
   8.200   19.14   -7.94   -7.44   0.000   0.200   0.000    0.00
   8.250   18.62   -9.19   -6.71   0.000   0.200   0.000    0.00
   8.300   19.60   -8.24   -7.20   0.000   0.200   0.000    0.00
   8.350   18.86   -9.64   -7.47   0.000   0.200   0.000    0.00
   8.400   18.10   -6.53   -6.89   0.000   0.200   0.000    0.00
   8.450   17.94   -8.44   -6.82   0.000   0.200   0.000    0.00
   8.500   17.38  -11.44   -7.36   0.000   0.200   0.000    0.00
   8.550   17.21  -11.85   -7.68   0.000   0.200   0.000    0.00
   8.600   18.20  -16.32   -7.27   0.000   0.200   0.000    0.00
   8.650   18.54  -17.73   -7.39   0.000   0.200   0.000    0.00
   8.700   17.67  -14.76   -6.53   0.000   0.200   0.000    0.00
   8.750   16.87  -11.68   -6.49   0.000   0.200   0.000    0.00
   8.800   16.46  -13.15   -7.12   0.000   0.200   0.000    0.00
   8.850   17.35  -16.94   -7.55   0.000   0.200   0.000    0.00
   8.900   18.16  -14.74   -6.68   0.000   0.200   0.000    0.00
   8.950   18.06   -9.70   -6.71   0.000   0.200   0.000    0.00
   9.000   18.38  -11.30   -6.72   0.000   0.200   0.000    0.00
   9.050   18.23  -12.86   -5.85   0.000   0.200   0.000    0.00
   9.100   18.20   -9.78   -5.88   0.000   0.200   0.000    0.00
   9.150   17.92   -8.78   -5.08   0.000   0.200   0.000    0.00
   9.200   18.20  -12.08   -4.98   0.000   0.200   0.000    0.00
   9.250   17.58  -11.28   -4.79   0.000   0.200   0.000    0.00
   9.300   17.94  -12.90   -4.24   0.000   0.200   0.000    0.00
   9.350   18.23  -15.05   -5.02   0.000   0.200   0.000    0.00
   9.400   18.18  -11.78   -4.58   0.000   0.200   0.000    0.00
   9.450   18.33  -10.18   -4.57   0.000   0.200   0.000    0.00
   9.500   19.49   -7.69   -5.39   0.000   0.200   0.000    0.00
   9.550   18.65   -5.69   -5.36   0.000   0.200   0.000    0.00
   9.600   18.36   -4.62   -5.21   0.000   0.200   0.000    0.00
   9.650   18.30   -3.24   -5.28   0.000   0.200   0.000    0.00
   9.700   18.70   -1.98   -5.05   0.000   0.200   0.000    0.00
   9.750   18.58   -3.50   -4.28   0.000   0.200   0.000    0.00
   9.800   18.96   -3.59   -3.66   0.000   0.200   0.000    0.00
   9.850   18.12   -3.47   -4.10   0.000   0.200   0.000    0.00
   9.900   17.76   -4.08   -4.27   0.000   0.200   0.000    0.00
   9.950   17.59   -3.33   -3.97   0.000   0.200   0.000    0.00
  10.000   17.34   -7.62   -4.32   0.000   0.200   0.000    0.00
  10.050   18.15   -8.62   -4.14   0.000   0.200   0.000    0.00
  10.100   18.11   -9.67   -4.76   0.000   0.200   0.000    0.00
  10.150   18.21   -8.35   -6.38   0.000   0.200   0.000    0.00
  10.200   18.46   -8.52   -5.71   0.000   0.200   0.000    0.00
  10.250   18.11   -9.09   -5.04   0.000   0.200   0.000    0.00
  10.300   17.23   -9.48   -4.05   0.000   0.200   0.000    0.00
  10.350   16.76  -10.23   -3.97   0.000   0.200   0.000    0.00
  10.400   17.48  -10.97   -2.68   0.000   0.200   0.000    0.00
  10.450   17.81  -13.16   -2.67   0.000   0.200   0.000    0.00
  10.500   18.00   -9.62   -2.96   0.000   0.200   0.000    0.00
  10.550   18.23   -9.67   -1.74   0.000   0.200   0.000    0.00
  10.600   18.61   -9.28   -2.11   0.000   0.200   0.000    0.00
  10.650   18.35   -9.49   -2.91   0.000   0.200   0.000    0.00
  10.700   18.86   -9.42   -2.09   0.000   0.200   0.000    0.00
  10.750   17.70   -6.88   -1.56   0.000   0.200   0.000    0.00
  10.800   17.41   -4.95   -2.71   0.000   0.200   0.000    0.00
  10.850   17.33   -4.21   -1.80   0.000   0.200   0.000    0.00
  10.900   16.70   -6.53   -1.40   0.000   0.200   0.000    0.00
  10.950   16.35   -9.00   -1.29   0.000   0.200   0.000    0.00
  11.000   16.67   -8.81   -0.32   0.000   0.200   0.000    0.00
  11.050   16.58   -7.98   -1.52   0.000   0.200   0.000    0.00
  11.100   16.49   -7.45   -2.17   0.000   0.200   0.000    0.00
  11.150   16.58   -5.47   -2.00   0.000   0.200   0.000    0.00
  11.200   16.71   -6.63   -1.69   0.000   0.200   0.000    0.00
  11.250   16.45   -6.85   -1.29   0.000   0.200   0.000    0.00
  11.300   16.29  -10.89   -3.02   0.000   0.200   0.000    0.00
  11.350   16.00  -12.50   -2.67   0.000   0.200   0.000    0.00
  11.400   17.07  -11.58   -1.48   0.000   0.200   0.000    0.00
  11.450   17.23   -7.55   -1.50   0.000   0.200   0.000    0.00
  11.500   16.33   -9.06   -0.87   0.000   0.200   0.000    0.00
  11.550   16.43  -10.38   -0.84   0.000   0.200   0.000    0.00
  11.600   15.69  -10.90   -0.55   0.000   0.200   0.000    0.00
  11.650   15.14  -10.38    0.24   0.000   0.200   0.000    0.00
  11.700   15.87   -5.85   -0.14   0.000   0.200   0.000    0.00
  11.750   15.82   -5.68   -0.38   0.000   0.200   0.000    0.00
  11.800   15.78   -3.50   -0.30   0.000   0.200   0.000    0.00
  11.850   15.26   -2.41    0.14   0.000   0.200   0.000    0.00
  11.900   15.09   -2.06   -0.22   0.000   0.200   0.000    0.00
  11.950   15.05   -1.74   -0.20   0.000   0.200   0.000    0.00
  12.000   14.48   -3.76   -0.36   0.000   0.200   0.000    0.00
  12.050   14.14   -2.95   -0.98   0.000   0.200   0.000    0.00
  12.100   14.42   -5.39   -1.39   0.000   0.200   0.000    0.00
  12.150   15.76   -3.50   -1.22   0.000   0.200   0.000    0.00
  12.200   15.73   -1.84   -1.44   0.000   0.200   0.000    0.00
  12.250   15.28    0.69   -1.12   0.000   0.200   0.000    0.00
  12.300   15.40    1.02   -1.33   0.000   0.200   0.000    0.00
  12.350   15.18    2.73   -1.99   0.000   0.200   0.000    0.00
  12.400   15.97    4.77   -2.60   0.000   0.200   0.000    0.00
  12.450   15.61    7.87   -2.92   0.000   0.200   0.000    0.00
  12.500   15.23    6.92   -2.96   0.000   0.200   0.000    0.00
  12.550   16.09    7.02   -3.30   0.000   0.200   0.000    0.00
  12.600   16.45    3.04   -3.53   0.000   0.200   0.000    0.00
  12.650   16.56    2.03   -3.44   0.000   0.200   0.000    0.00
  12.700   16.55    2.16   -3.18   0.000   0.200   0.000    0.00
  12.750   16.74    1.02   -3.33   0.000   0.200   0.000    0.00
  12.800   16.18    0.21   -3.23   0.000   0.200   0.000    0.00
  12.850   15.53    3.84   -3.69   0.000   0.200   0.000    0.00
  12.900   15.19    6.01   -4.07   0.000   0.200   0.000    0.00
  12.950   14.30    8.03   -4.49   0.000   0.200   0.000    0.00
  13.000   13.56    8.72   -3.86   0.000   0.200   0.000    0.00
  13.050   13.96   10.42   -2.68   0.000   0.200   0.000    0.00
  13.100   13.88    8.25   -2.96   0.000   0.200   0.000    0.00
  13.150   14.27    4.18   -2.58   0.000   0.200   0.000    0.00
  13.200   13.96    6.74   -2.61   0.000   0.200   0.000    0.00
  13.250   13.61    7.69   -2.83   0.000   0.200   0.000    0.00
  13.300   13.49    5.86   -2.37   0.000   0.200   0.000    0.00
  13.350   13.29    7.70   -3.25   0.000   0.200   0.000    0.00
  13.400   13.24    8.56   -4.11   0.000   0.200   0.000    0.00
  13.450   13.50    9.11   -4.79   0.000   0.200   0.000    0.00
  13.500   13.97    6.21   -4.36   0.000   0.200   0.000    0.00
  13.550   13.90    9.87   -4.08   0.000   0.200   0.000    0.00
  13.600   13.97    9.97   -3.98   0.000   0.200   0.000    0.00
  13.650   14.15    6.76   -4.95   0.000   0.200   0.000    0.00
  13.700   14.89    6.82   -4.27   0.000   0.200   0.000    0.00
  13.750   14.84   11.27   -3.76   0.000   0.200   0.000    0.00
  13.800   14.49   10.32   -4.66   0.000   0.200   0.000    0.00
  13.850   15.39   15.25   -5.01   0.000   0.200   0.000    0.00
  13.900   15.09   16.08   -4.48   0.000   0.200   0.000    0.00
  13.950   15.78   14.42   -4.79   0.000   0.200   0.000    0.00
  14.000   15.16   13.38   -5.21   0.000   0.200   0.000    0.00
  14.050   15.05   14.01   -5.11   0.000   0.200   0.000    0.00
  14.100   15.72   18.54   -6.26   0.000   0.200   0.000    0.00
  14.150   16.11   17.49   -6.24   0.000   0.200   0.000    0.00
  14.200   16.77   15.95   -5.83   0.000   0.200   0.000    0.00
  14.250   16.19   17.30   -5.89   0.000   0.200   0.000    0.00
  14.300   15.98   14.41   -6.38   0.000   0.200   0.000    0.00
  14.350   16.61   14.97   -6.25   0.000   0.200   0.000    0.00
  14.400   17.77   12.26   -5.53   0.000   0.200   0.000    0.00
  14.450   18.01   10.13   -5.65   0.000   0.200   0.000    0.00
  14.500   17.92   10.77   -5.35   0.000   0.200   0.000    0.00
  14.550   18.07   11.26   -5.13   0.000   0.200   0.000    0.00
  14.600   18.11   10.73   -5.22   0.000   0.200   0.000    0.00
  14.650   18.38   12.34   -5.50   0.000   0.200   0.000    0.00
  14.700   18.54   15.91   -5.70   0.000   0.200   0.000    0.00
  14.750   17.96   13.85   -6.54   0.000   0.200   0.000    0.00
  14.800   18.21   13.59   -5.29   0.000   0.200   0.000    0.00
  14.850   18.70   13.82   -4.29   0.000   0.200   0.000    0.00
  14.900   18.62   12.76   -3.73   0.000   0.200   0.000    0.00
  14.950   18.40    6.67   -3.06   0.000   0.200   0.000    0.00
  15.000   19.18    8.83   -3.25   0.000   0.200   0.000    0.00
  15.050   18.53    9.85   -3.09   0.000   0.200   0.000    0.00
  15.100   17.62    7.63   -4.14   0.000   0.200   0.000    0.00
  15.150   17.95    7.65   -4.32   0.000   0.200   0.000    0.00
  15.200   18.18    6.38   -3.34   0.000   0.200   0.000    0.00
  15.250   18.40    6.46   -3.55   0.000   0.200   0.000    0.00
  15.300   18.05    4.01   -3.59   0.000   0.200   0.000    0.00
  15.350   18.02    5.38   -2.65   0.000   0.200   0.000    0.00
  15.400   18.58    6.30   -2.87   0.000   0.200   0.000    0.00
  15.450   18.86    6.67   -2.81   0.000   0.200   0.000    0.00
  15.500   18.33    5.35   -2.25   0.000   0.200   0.000    0.00
  15.550   18.61    8.23   -2.26   0.000   0.200   0.000    0.00
  15.600   18.38    9.87   -2.85   0.000   0.200   0.000    0.00
  15.650   18.42    8.06   -3.43   0.000   0.200   0.000    0.00
  15.700   18.53    4.62   -3.05   0.000   0.200   0.000    0.00
  15.750   18.62    4.06   -3.08   0.000   0.200   0.000    0.00
  15.800   18.29    3.20   -2.68   0.000   0.200   0.000    0.00
  15.850   17.79    4.02   -2.32   0.000   0.200   0.000    0.00
  15.900   18.02    5.70   -3.05   0.000   0.200   0.000    0.00
  15.950   18.44    5.14   -3.97   0.000   0.200   0.000    0.00
  16.000   17.73    5.92   -3.75   0.000   0.200   0.000    0.00
  16.050   17.49    6.42   -3.17   0.000   0.200   0.000    0.00
  16.100   17.90    6.34   -2.79   0.000   0.200   0.000    0.00
  16.150   16.75    8.90   -2.62   0.000   0.200   0.000    0.00
  16.200   16.95    8.02   -2.84   0.000   0.200   0.000    0.00
  16.250   17.61    3.74   -1.53   0.000   0.200   0.000    0.00
  16.300   18.84    3.02   -2.56   0.000   0.200   0.000    0.00
  16.350   18.38    3.70   -3.58   0.000   0.200   0.000    0.00
  16.400   18.19    5.79   -4.10   0.000   0.200   0.000    0.00
  16.450   17.91    6.55   -3.93   0.000   0.200   0.000    0.00
  16.500   18.10    7.82   -2.81   0.000   0.200   0.000    0.00
  16.550   18.77    4.18   -3.68   0.000   0.200   0.000    0.00
  16.600   18.37    5.07   -3.14   0.000   0.200   0.000    0.00
  16.650   18.16    1.41   -2.17   0.000   0.200   0.000    0.00
  16.700   18.34   -1.04   -3.15   0.000   0.200   0.000    0.00
  16.750   18.61   -0.09   -3.49   0.000   0.200   0.000    0.00
  16.800   19.20   -0.57   -2.89   0.000   0.200   0.000    0.00
  16.850   18.09   -1.66   -3.30   0.000   0.200   0.000    0.00
  16.900   17.88    0.02   -4.22   0.000   0.200   0.000    0.00
  16.950   17.70    0.33   -3.82   0.000   0.200   0.000    0.00
  17.000   18.56   -0.18   -3.86   0.000   0.200   0.000    0.00
  17.050   19.74    1.99   -3.54   0.000   0.200   0.000    0.00
  17.100   19.26    1.31   -3.11   0.000   0.200   0.000    0.00
  17.150   18.71    1.61   -2.25   0.000   0.200   0.000    0.00
  17.200   18.21    3.82   -2.33   0.000   0.200   0.000    0.00
  17.250   19.10    2.95   -2.19   0.000   0.200   0.000    0.00
  17.300   18.44    5.26   -2.56   0.000   0.200   0.000    0.00
  17.350   17.35    7.33   -3.89   0.000   0.200   0.000    0.00
  17.400   17.34    6.05   -3.97   0.000   0.200   0.000    0.00
  17.450   17.78    2.33   -4.23   0.000   0.200   0.000    0.00
  17.500   18.64    0.70   -4.53   0.000   0.200   0.000    0.00
  17.550   18.17    1.86   -4.28   0.000   0.200   0.000    0.00
  17.600   18.00    2.63   -4.38   0.000   0.200   0.000    0.00
  17.650   18.41    1.10   -3.83   0.000   0.200   0.000    0.00
  17.700   18.50    1.52   -3.47   0.000   0.200   0.000    0.00
  17.750   18.49   -0.33   -2.45   0.000   0.200   0.000    0.00
  17.800   18.73   -0.46   -2.98   0.000   0.200   0.000    0.00
  17.850   18.42   -0.30   -2.31   0.000   0.200   0.000    0.00
  17.900   18.30   -1.60   -1.90   0.000   0.200   0.000    0.00
  17.950   18.58   -4.88   -2.65   0.000   0.200   0.000    0.00
  18.000   18.92    0.02   -2.35   0.000   0.200   0.000    0.00
  18.050   19.52    3.90   -2.99   0.000   0.200   0.000    0.00
  18.100   19.57    4.37   -3.26   0.000   0.200   0.000    0.00
  18.150   20.04    2.72   -1.75   0.000   0.200   0.000    0.00
  18.200   18.91    3.17   -1.98   0.000   0.200   0.000    0.00
  18.250   19.07    3.69   -2.27   0.000   0.200   0.000    0.00
  18.300   18.54    4.59   -1.54   0.000   0.200   0.000    0.00
  18.350   18.40    0.79   -0.81   0.000   0.200   0.000    0.00
  18.400   19.28   -1.58   -0.81   0.000   0.200   0.000    0.00
  18.450   19.51   -1.06   -0.70   0.000   0.200   0.000    0.00
  18.500   20.17   -0.44   -0.98   0.000   0.200   0.000    0.00
  18.550   20.70   -0.73   -1.17   0.000   0.200   0.000    0.00
  18.600   20.78   -2.58   -1.42   0.000   0.200   0.000    0.00
  18.650   19.81   -2.85   -0.80   0.000   0.200   0.000    0.00
  18.700   19.97   -3.62   -0.48   0.000   0.200   0.000    0.00
  18.750   19.60   -4.16   -1.00   0.000   0.200   0.000    0.00
  18.800   19.77   -6.23   -0.98   0.000   0.200   0.000    0.00
  18.850   18.88   -9.13   -1.21   0.000   0.200   0.000    0.00
  18.900   18.61   -8.55   -1.03   0.000   0.200   0.000    0.00
  18.950   19.39   -3.83   -1.17   0.000   0.200   0.000    0.00
  19.000   19.39   -3.81   -2.48   0.000   0.200   0.000    0.00
  19.050   19.20   -4.95   -3.27   0.000   0.200   0.000    0.00
  19.100   19.64   -2.54   -3.23   0.000   0.200   0.000    0.00
  19.150   20.12   -0.98   -2.92   0.000   0.200   0.000    0.00
  19.200   20.49    0.06   -3.67   0.000   0.200   0.000    0.00
  19.250   20.37    0.72   -3.16   0.000   0.200   0.000    0.00
  19.300   20.90    1.32   -3.72   0.000   0.200   0.000    0.00
  19.350   21.55    3.62   -2.76   0.000   0.200   0.000    0.00
  19.400   21.03    2.74   -1.53   0.000   0.200   0.000    0.00
  19.450   20.41    2.12   -2.03   0.000   0.200   0.000    0.00
  19.500   20.41    1.27   -1.72   0.000   0.200   0.000    0.00
  19.550   20.17   -2.08   -1.29   0.000   0.200   0.000    0.00
  19.600   20.12   -5.63   -2.07   0.000   0.200   0.000    0.00
  19.650   20.87   -3.76   -2.21   0.000   0.200   0.000    0.00
  19.700   20.13   -5.14   -1.89   0.000   0.200   0.000    0.00
  19.750   20.63   -5.86   -1.22   0.000   0.200   0.000    0.00
  19.800   20.96   -4.43   -1.12   0.000   0.200   0.000    0.00
  19.850   21.84   -2.97   -0.97   0.000   0.200   0.000    0.00
  19.900   21.93   -4.19   -1.28   0.000   0.200   0.000    0.00
  19.950   21.52   -3.43   -2.26   0.000   0.200   0.000    0.00
  20.000   22.02   -4.24   -2.11   0.000   0.200   0.000    0.00
  20.050   20.98   -5.64   -2.45   0.000   0.200   0.000    0.00
  20.100   21.36   -4.24   -1.86   0.000   0.200   0.000    0.00
  20.150   21.89   -4.61   -2.22   0.000   0.200   0.000    0.00
  20.200   20.83   -6.91   -2.10   0.000   0.200   0.000    0.00
  20.250   20.97   -5.86   -2.01   0.000   0.200   0.000    0.00
  20.300   21.26   -5.18   -2.47   0.000   0.200   0.000    0.00
  20.350   21.55   -3.74   -2.07   0.000   0.200   0.000    0.00
  20.400   22.43   -1.47   -2.79   0.000   0.200   0.000    0.00
  20.450   22.48   -2.14   -2.88   0.000   0.200   0.000    0.00
  20.500   21.91   -5.39   -2.91   0.000   0.200   0.000    0.00
  20.550   22.62   -6.03   -3.34   0.000   0.200   0.000    0.00
  20.600   22.69   -6.12   -3.32   0.000   0.200   0.000    0.00
  20.650   22.14   -6.32   -2.47   0.000   0.200   0.000    0.00
  20.700   22.64   -6.91   -1.70   0.000   0.200   0.000    0.00
  20.750   23.41   -5.97   -2.02   0.000   0.200   0.000    0.00
  20.800   22.84   -5.61   -1.61   0.000   0.200   0.000    0.00
  20.850   22.82   -5.75   -2.25   0.000   0.200   0.000    0.00
  20.900   23.36   -8.32   -1.48   0.000   0.200   0.000    0.00
  20.950   22.79   -5.30   -0.65   0.000   0.200   0.000    0.00
  21.000   23.21   -5.58   -0.18   0.000   0.200   0.000    0.00
  21.050   22.76   -6.25   -0.61   0.000   0.200   0.000    0.00
  21.100   22.37   -6.95   -0.38   0.000   0.200   0.000    0.00
  21.150   21.50   -8.92   -0.84   0.000   0.200   0.000    0.00
  21.200   21.41   -7.56   -0.07   0.000   0.200   0.000    0.00
  21.250   22.87   -5.11    0.61   0.000   0.200   0.000    0.00
  21.300   22.95   -3.95    0.79   0.000   0.200   0.000    0.00
  21.350   22.87   -4.59    1.17   0.000   0.200   0.000    0.00
  21.400   22.96   -3.28    0.75   0.000   0.200   0.000    0.00
  21.450   22.48   -6.15    0.50   0.000   0.200   0.000    0.00
  21.500   23.12   -4.88    1.84   0.000   0.200   0.000    0.00
  21.550   23.13   -5.15    1.74   0.000   0.200   0.000    0.00
  21.600   22.70   -5.68    0.78   0.000   0.200   0.000    0.00
  21.650   22.49   -4.67    0.41   0.000   0.200   0.000    0.00
  21.700   22.32   -6.87   -1.02   0.000   0.200   0.000    0.00
  21.750   22.51   -4.74   -1.67   0.000   0.200   0.000    0.00
  21.800   22.51   -5.08   -1.65   0.000   0.200   0.000    0.00
  21.850   21.48   -3.70   -1.97   0.000   0.200   0.000    0.00
  21.900   21.47   -4.49   -3.02   0.000   0.200   0.000    0.00
  21.950   21.71   -6.48   -2.68   0.000   0.200   0.000    0.00
  22.000   21.52   -8.86   -1.75   0.000   0.200   0.000    0.00
  22.050   22.11  -11.10   -1.07   0.000   0.200   0.000    0.00
  22.100   21.59  -10.54   -0.33   0.000   0.200   0.000    0.00
  22.150   20.98   -9.43   -0.66   0.000   0.200   0.000    0.00
  22.200   20.55   -8.25   -0.67   0.000   0.200   0.000    0.00
  22.250   21.06   -7.76   -0.72   0.000   0.200   0.000    0.00
  22.300   20.65   -4.87   -0.60   0.000   0.200   0.000    0.00
  22.350   19.96   -5.56    0.19   0.000   0.200   0.000    0.00
  22.400   19.53   -4.22    1.01   0.000   0.200   0.000    0.00
  22.450   19.27   -3.67    0.26   0.000   0.200   0.000    0.00
  22.500   19.63   -3.74    0.50   0.000   0.200   0.000    0.00
  22.550   19.35   -4.18    0.25   0.000   0.200   0.000    0.00
  22.600   19.65   -3.70    1.02   0.000   0.200   0.000    0.00
  22.650   20.47   -4.32    0.36   0.000   0.200   0.000    0.00
  22.700   20.11   -4.84    0.18   0.000   0.200   0.000    0.00