! This hub-height wind-speed file was generated by TurbSim (from OpenFAST--128-NOTFOUND) on 04-Nov-2023 at 13:31:24.
!
! The requested statistics for this data were:
!    Mean Total Wind Speed =   20.000 m/s
!    Turbulence Intensity  =   14.420%
!
!   Time  HorSpd  WndDir  VerSpd  HorShr  VerShr  LnVShr  GstSpd
!  (sec)   (m/s)   (deg)   (m/s)     (-)     (-)     (-)   (m/s)
   0.000   21.84    0.89   -1.81   0.000   0.200   0.000    0.00
   0.050   21.84    3.20   -2.55   0.000   0.200   0.000    0.00
   0.100   21.83    5.08   -1.57   0.000   0.200   0.000    0.00
   0.150   21.85    5.52   -2.57   0.000   0.200   0.000    0.00
   0.200   22.00    7.18   -3.62   0.000   0.200   0.000    0.00
   0.250   21.69    8.44   -3.68   0.000   0.200   0.000    0.00
   0.300   21.43    7.86   -3.58   0.000   0.200   0.000    0.00
   0.350   21.15    8.57   -3.99   0.000   0.200   0.000    0.00
   0.400   20.48    7.26   -3.30   0.000   0.200   0.000    0.00
   0.450   21.01    8.93   -3.28   0.000   0.200   0.000    0.00
   0.500   21.23   11.56   -2.56   0.000   0.200   0.000    0.00
   0.550   21.32   12.99   -2.85   0.000   0.200   0.000    0.00
   0.600   20.97   13.21   -2.29   0.000   0.200   0.000    0.00
   0.650   20.27   10.22   -1.18   0.000   0.200   0.000    0.00
   0.700   21.14   10.22   -0.91   0.000   0.200   0.000    0.00
   0.750   22.03   10.74    0.48   0.000   0.200   0.000    0.00
   0.800   22.31   11.77    0.65   0.000   0.200   0.000    0.00
   0.850   22.22   10.37    0.47   0.000   0.200   0.000    0.00
   0.900   22.99   10.37    1.01   0.000   0.200   0.000    0.00
   0.950   23.89   11.63    0.55   0.000   0.200   0.000    0.00
   1.000   23.49   11.31    0.09   0.000   0.200   0.000    0.00
   1.050   23.88    8.77   -0.25   0.000   0.200   0.000    0.00
   1.100   23.41    9.92   -0.85   0.000   0.200   0.000    0.00
   1.150   23.32    8.54    0.33   0.000   0.200   0.000    0.00
   1.200   23.70    8.24    0.28   0.000   0.200   0.000    0.00
   1.250   24.00    9.05   -0.14   0.000   0.200   0.000    0.00
   1.300   23.83    9.79   -0.39   0.000   0.200   0.000    0.00
   1.350   23.35    9.80   -0.20   0.000   0.200   0.000    0.00
   1.400   23.34    6.82    0.03   0.000   0.200   0.000    0.00
   1.450   23.08    6.75   -0.14   0.000   0.200   0.000    0.00
   1.500   22.25    9.28    0.14   0.000   0.200   0.000    0.00
   1.550   22.59   10.56   -0.69   0.000   0.200   0.000    0.00
   1.600   22.83   10.58   -0.76   0.000   0.200   0.000    0.00
   1.650   22.97    8.06    0.69   0.000   0.200   0.000    0.00
   1.700   23.25    6.57    1.14   0.000   0.200   0.000    0.00
   1.750   23.40    6.27    1.56   0.000   0.200   0.000    0.00
   1.800   23.47    6.13    1.13   0.000   0.200   0.000    0.00
   1.850   23.12    5.39    1.25   0.000   0.200   0.000    0.00
   1.900   23.63    4.80   -0.14   0.000   0.200   0.000    0.00
   1.950   23.27    6.20   -0.03   0.000   0.200   0.000    0.00
   2.000   24.51    5.09    1.04   0.000   0.200   0.000    0.00
   2.050   24.86    6.51    1.29   0.000   0.200   0.000    0.00
   2.100   24.75    6.67    1.53   0.000   0.200   0.000    0.00
   2.150   24.28    6.61    1.73   0.000   0.200   0.000    0.00
   2.200   23.55    4.42    2.16   0.000   0.200   0.000    0.00
   2.250   23.31    4.36    2.06   0.000   0.200   0.000    0.00
   2.300   23.49    0.61    1.93   0.000   0.200   0.000    0.00
   2.350   22.93    1.04    2.01   0.000   0.200   0.000    0.00
   2.400   22.51    0.68    1.24   0.000   0.200   0.000    0.00
   2.450   22.46    1.68    1.32   0.000   0.200   0.000    0.00
   2.500   22.35   -0.22    2.50   0.000   0.200   0.000    0.00
   2.550   22.85   -0.70    1.42   0.000   0.200   0.000    0.00
   2.600   22.61    3.82    0.65   0.000   0.200   0.000    0.00
   2.650   22.21    1.55    0.07   0.000   0.200   0.000    0.00
   2.700   22.02    2.19   -0.09   0.000   0.200   0.000    0.00
   2.750   21.84    4.73   -0.38   0.000   0.200   0.000    0.00
   2.800   21.84    6.90    0.71   0.000   0.200   0.000    0.00
   2.850   20.36    4.94    0.60   0.000   0.200   0.000    0.00
   2.900   20.43    4.90   -0.18   0.000   0.200   0.000    0.00
   2.950   21.23    4.37    0.13   0.000   0.200   0.000    0.00
   3.000   20.89    6.77   -1.05   0.000   0.200   0.000    0.00
   3.050   21.20    2.29   -1.59   0.000   0.200   0.000    0.00
   3.100   21.60    3.72   -1.48   0.000   0.200   0.000    0.00
   3.150   21.77    3.91   -2.11   0.000   0.200   0.000    0.00
   3.200   21.47    6.14   -2.44   0.000   0.200   0.000    0.00
   3.250   22.09    6.56   -2.51   0.000   0.200   0.000    0.00
   3.300   22.47    8.67   -2.72   0.000   0.200   0.000    0.00
   3.350   22.25    6.45   -1.86   0.000   0.200   0.000    0.00
   3.400   22.40    6.39   -1.70   0.000   0.200   0.000    0.00
   3.450   23.62    9.73   -1.77   0.000   0.200   0.000    0.00
   3.500   23.51    7.72   -1.44   0.000   0.200   0.000    0.00
   3.550   23.05    7.33   -0.78   0.000   0.200   0.000    0.00
   3.600   22.44    7.18   -0.17   0.000   0.200   0.000    0.00
   3.650   22.80    7.21   -0.16   0.000   0.200   0.000    0.00
   3.700   23.31    7.35   -1.46   0.000   0.200   0.000    0.00
   3.750   21.62    7.62   -1.82   0.000   0.200   0.000    0.00
   3.800   21.82    9.64   -1.58   0.000   0.200   0.000    0.00
   3.850   22.45   10.72   -0.98   0.000   0.200   0.000    0.00
   3.900   22.05    7.36   -0.53   0.000   0.200   0.000    0.00
   3.950   21.01    6.18    0.39   0.000   0.200   0.000    0.00
   4.000   21.21    7.92    0.08   0.000   0.200   0.000    0.00
   4.050   22.39   10.63    0.76   0.000   0.200   0.000    0.00
   4.100   22.86   10.18   -0.01   0.000   0.200   0.000    0.00
   4.150   22.90    8.33   -0.65   0.000   0.200   0.000    0.00
   4.200   22.90    7.91   -0.10   0.000   0.200   0.000    0.00
   4.250   22.13    9.54    0.27   0.000   0.200   0.000    0.00
   4.300   22.11   10.26    0.89   0.000   0.200   0.000    0.00
   4.350   21.86   10.70    1.54   0.000   0.200   0.000    0.00
   4.400   22.83    9.03    2.65   0.000   0.200   0.000    0.00
   4.450   21.79    8.46    2.87   0.000   0.200   0.000    0.00
   4.500   21.78    9.29    3.57   0.000   0.200   0.000    0.00
   4.550   21.51    9.49    2.85   0.000   0.200   0.000    0.00
   4.600   21.05    8.88    2.16   0.000   0.200   0.000    0.00
   4.650   20.53    8.11    1.24   0.000   0.200   0.000    0.00
   4.700   20.88    6.90    0.98   0.000   0.200   0.000    0.00
   4.750   20.77    4.86    0.31   0.000   0.200   0.000    0.00
   4.800   19.88    7.73   -0.04   0.000   0.200   0.000    0.00
   4.850   19.52    6.72    0.24   0.000   0.200   0.000    0.00
   4.900   19.26    7.25    0.54   0.000   0.200   0.000    0.00
   4.950   19.38    5.52    0.82   0.000   0.200   0.000    0.00
   5.000   20.20    9.98    1.32   0.000   0.200   0.000    0.00
   5.050   20.07    9.07    1.13   0.000   0.200   0.000    0.00
   5.100   19.36    8.01    1.33   0.000   0.200   0.000    0.00
   5.150   19.01   10.05    1.03   0.000   0.200   0.000    0.00
   5.200   18.82   11.84    1.20   0.000   0.200   0.000    0.00
   5.250   19.01   11.11    0.94   0.000   0.200   0.000    0.00
   5.300   18.89    8.55    0.85   0.000   0.200   0.000    0.00
   5.350   19.15    5.96    0.72   0.000   0.200   0.000    0.00
   5.400   18.58    7.48    0.15   0.000   0.200   0.000    0.00
   5.450   18.98    8.15    0.08   0.000   0.200   0.000    0.00
   5.500   18.28    7.31   -0.40   0.000   0.200   0.000    0.00
   5.550   17.81    6.18   -2.20   0.000   0.200   0.000    0.00
   5.600   17.46    7.68   -1.61   0.000   0.200   0.000    0.00
   5.650   18.47    5.08   -0.66   0.000   0.200   0.000    0.00
   5.700   18.95    5.31   -1.07   0.000   0.200   0.000    0.00
   5.750   18.59    4.56   -0.86   0.000   0.200   0.000    0.00
   5.800   18.19    4.95   -0.86   0.000   0.200   0.000    0.00
   5.850   18.17    2.75   -0.49   0.000   0.200   0.000    0.00
   5.900   18.46    2.97    0.17   0.000   0.200   0.000    0.00
   5.950   19.19    3.56    1.00   0.000   0.200   0.000    0.00
   6.000   19.14    3.88    1.30   0.000   0.200   0.000    0.00
   6.050   18.86    4.02    1.29   0.000   0.200   0.000    0.00
   6.100   19.64    3.17    1.14   0.000   0.200   0.000    0.00
   6.150   19.72    2.75    0.53   0.000   0.200   0.000    0.00
   6.200   19.94    1.57    0.82   0.000   0.200   0.000    0.00
   6.250   18.51    1.64    0.50   0.000   0.200   0.000    0.00
   6.300   18.41    4.62    1.10   0.000   0.200   0.000    0.00
   6.350   18.99    1.38    1.96   0.000   0.200   0.000    0.00
   6.400   18.19    1.50    2.42   0.000   0.200   0.000    0.00
   6.450   17.75   -0.42    2.90   0.000   0.200   0.000    0.00
   6.500   17.29   -1.83    1.55   0.000   0.200   0.000    0.00
   6.550   17.54    0.26    1.17   0.000   0.200   0.000    0.00
   6.600   17.46    0.07    1.76   0.000   0.200   0.000    0.00
   6.650   18.03   -0.27    2.16   0.000   0.200   0.000    0.00
   6.700   18.53   -2.40    1.56   0.000   0.200   0.000    0.00
   6.750   18.64   -1.56    1.57   0.000   0.200   0.000    0.00
   6.800   18.16   -3.14    0.88   0.000   0.200   0.000    0.00
   6.850   17.38   -4.38    0.09   0.000   0.200   0.000    0.00
   6.900   17.27   -2.67    0.10   0.000   0.200   0.000    0.00
   6.950   17.91    1.77    0.31   0.000   0.200   0.000    0.00
   7.000   16.83    3.35    0.55   0.000   0.200   0.000    0.00
   7.050   16.81   -0.18    0.57   0.000   0.200   0.000    0.00
   7.100   17.63   -2.06   -0.16   0.000   0.200   0.000    0.00
   7.150   16.08   -0.24    0.06   0.000   0.200   0.000    0.00
   7.200   15.92    1.08    0.03   0.000   0.200   0.000    0.00
   7.250   15.65   -0.99   -0.01   0.000   0.200   0.000    0.00
   7.300   15.45   -6.09   -0.57   0.000   0.200   0.000    0.00
   7.350   15.95   -9.12   -1.53   0.000   0.200   0.000    0.00
   7.400   16.34   -7.26   -1.59   0.000   0.200   0.000    0.00
   7.450   15.88   -7.40   -1.10   0.000   0.200   0.000    0.00
   7.500   15.98   -5.89   -0.62   0.000   0.200   0.000    0.00
   7.550   15.11   -8.81   -1.23   0.000   0.200   0.000    0.00
   7.600   14.55   -9.15   -1.72   0.000   0.200   0.000    0.00
   7.650   14.99   -7.75   -1.60   0.000   0.200   0.000    0.00
   7.700   14.03   -6.89   -1.07   0.000   0.200   0.000    0.00
   7.750   14.52   -5.93   -1.23   0.000   0.200   0.000    0.00
   7.800   14.01   -5.04   -2.10   0.000   0.200   0.000    0.00
   7.850   14.96   -1.99   -1.38   0.000   0.200   0.000    0.00
   7.900   15.21   -4.85   -1.12   0.000   0.200   0.000    0.00
   7.950   15.14   -2.77   -1.29   0.000   0.200   0.000    0.00
   8.000   15.02   -0.41   -1.75   0.000   0.200   0.000    0.00
   8.050   14.75   -2.45   -1.49   0.000   0.200   0.000    0.00
   8.100   14.69   -2.11   -1.39   0.000   0.200   0.000    0.00
   8.150   15.91    1.06   -0.54   0.000   0.200   0.000    0.00
   8.200   15.54    1.14   -1.06   0.000   0.200   0.000    0.00
   8.250   15.77    1.57   -1.57   0.000   0.200   0.000    0.00
   8.300   15.62   -1.03   -1.87   0.000   0.200   0.000    0.00
   8.350   15.04   -1.94   -2.92   0.000   0.200   0.000    0.00
   8.400   14.75   -3.15   -2.59   0.000   0.200   0.000    0.00
   8.450   14.96   -2.41   -2.18   0.000   0.200   0.000    0.00
   8.500   14.90    1.38   -1.27   0.000   0.200   0.000    0.00
   8.550   15.27    2.89   -1.77   0.000   0.200   0.000    0.00
   8.600   15.75   -0.68   -2.17   0.000   0.200   0.000    0.00
   8.650   16.61   -0.74   -2.88   0.000   0.200   0.000    0.00
   8.700   16.29   -0.17   -3.24   0.000   0.200   0.000    0.00
   8.750   16.64    0.93   -2.49   0.000   0.200   0.000    0.00
   8.800   16.27    4.91   -3.04   0.000   0.200   0.000    0.00
   8.850   17.05    4.04   -2.51   0.000   0.200   0.000    0.00
   8.900   17.20    0.44   -2.55   0.000   0.200   0.000    0.00
   8.950   16.71    2.50   -2.84   0.000   0.200   0.000    0.00
   9.000   16.06    2.83   -3.64   0.000   0.200   0.000    0.00
   9.050   15.50    1.51   -3.95   0.000   0.200   0.000    0.00
   9.100   15.02    1.43   -4.22   0.000   0.200   0.000    0.00
   9.150   15.77   -2.18   -4.40   0.000   0.200   0.000    0.00
   9.200   15.07   -4.29   -4.21   0.000   0.200   0.000    0.00
   9.250   13.81   -2.87   -2.67   0.000   0.200   0.000    0.00
   9.300   12.53   -2.52   -3.23   0.000   0.200   0.000    0.00
   9.350   13.38    1.46   -3.12   0.000   0.200   0.000    0.00
   9.400   14.10   -0.79   -2.85   0.000   0.200   0.000    0.00
   9.450   13.77   -0.86   -3.71   0.000   0.200   0.000    0.00
   9.500   14.12    1.22   -2.31   0.000   0.200   0.000    0.00
   9.550   14.40    3.88   -2.50   0.000   0.200   0.000    0.00
   9.600   15.39    7.19   -3.08   0.000   0.200   0.000    0.00
   9.650   15.70    8.86   -3.07   0.000   0.200   0.000    0.00
   9.700   15.36    8.39   -2.81   0.000   0.200   0.000    0.00
   9.750   14.55    6.06   -3.60   0.000   0.200   0.000    0.00
   9.800   13.75    3.73   -3.00   0.000   0.200   0.000    0.00
   9.850   13.46   -1.28   -2.89   0.000   0.200   0.000    0.00
   9.900   13.19   -1.45   -1.91   0.000   0.200   0.000    0.00
   9.950   12.73    2.82   -2.09   0.000   0.200   0.000    0.00
  10.000   12.29    3.58   -3.77   0.000   0.200   0.000    0.00
  10.050   12.74    4.21   -2.64   0.000   0.200   0.000    0.00
  10.100   12.20    1.38   -2.35   0.000   0.200   0.000    0.00
  10.150   11.73    1.82   -1.19   0.000   0.200   0.000    0.00
  10.200   12.55    1.33   -0.85   0.000   0.200   0.000    0.00
  10.250   12.93    3.45   -0.78   0.000   0.200   0.000    0.00
  10.300   12.72    3.12   -0.33   0.000   0.200   0.000    0.00
  10.350   13.06    4.23   -1.06   0.000   0.200   0.000    0.00
  10.400   13.28    0.84   -1.38   0.000   0.200   0.000    0.00
  10.450   13.55    5.44   -1.98   0.000   0.200   0.000    0.00
  10.500   14.07    4.54   -1.94   0.000   0.200   0.000    0.00
  10.550   13.79    4.71   -1.57   0.000   0.200   0.000    0.00
  10.600   14.29    6.26   -1.98   0.000   0.200   0.000    0.00
  10.650   13.84    6.46   -2.17   0.000   0.200   0.000    0.00
  10.700   14.26    6.91   -1.94   0.000   0.200   0.000    0.00
  10.750   14.03    6.14   -2.14   0.000   0.200   0.000    0.00
  10.800   14.26    3.74   -1.14   0.000   0.200   0.000    0.00
  10.850   13.98    4.48   -2.28   0.000   0.200   0.000    0.00
  10.900   14.55    1.38   -2.89   0.000   0.200   0.000    0.00
  10.950   14.99    1.56   -2.83   0.000   0.200   0.000    0.00
  11.000   15.22   -0.99   -3.29   0.000   0.200   0.000    0.00
  11.050   14.95   -0.96   -2.92   0.000   0.200   0.000    0.00
  11.100   14.20    0.28   -3.11   0.000   0.200   0.000    0.00
  11.150   14.55   -0.81   -3.29   0.000   0.200   0.000    0.00
  11.200   14.43    2.25   -2.08   0.000   0.200   0.000    0.00
  11.250   14.73    2.00   -1.80   0.000   0.200   0.000    0.00
  11.300   14.54    1.11   -2.56   0.000   0.200   0.000    0.00
  11.350   14.68   -6.86   -2.41   0.000   0.200   0.000    0.00
  11.400   15.43   -6.13   -3.31   0.000   0.200   0.000    0.00
  11.450   16.38   -6.29   -4.20   0.000   0.200   0.000    0.00
  11.500   16.09   -7.70   -3.59   0.000   0.200   0.000    0.00
  11.550   14.83   -7.49   -1.27   0.000   0.200   0.000    0.00
  11.600   15.65  -11.89   -0.68   0.000   0.200   0.000    0.00
  11.650   15.80   -9.45   -1.51   0.000   0.200   0.000    0.00
  11.700   15.94  -10.39   -2.00   0.000   0.200   0.000    0.00
  11.750   16.38  -10.99   -2.48   0.000   0.200   0.000    0.00
  11.800   16.25  -11.44   -1.46   0.000   0.200   0.000    0.00
  11.850   15.82  -12.56   -0.57   0.000   0.200   0.000    0.00
  11.900   16.49  -15.04   -0.88   0.000   0.200   0.000    0.00
  11.950   16.50  -14.28   -1.93   0.000   0.200   0.000    0.00
  12.000   16.83  -16.40   -1.89   0.000   0.200   0.000    0.00
  12.050   17.63  -15.37   -1.84   0.000   0.200   0.000    0.00
  12.100   17.32  -14.02   -0.98   0.000   0.200   0.000    0.00
  12.150   16.98  -13.86   -1.12   0.000   0.200   0.000    0.00
  12.200   16.44  -15.53   -0.23   0.000   0.200   0.000    0.00
  12.250   15.99  -13.10   -1.25   0.000   0.200   0.000    0.00
  12.300   15.61  -15.22   -1.28   0.000   0.200   0.000    0.00
  12.350   16.03  -15.79   -0.52   0.000   0.200   0.000    0.00
  12.400   15.88  -18.13   -0.88   0.000   0.200   0.000    0.00
  12.450   15.59  -21.86   -1.41   0.000   0.200   0.000    0.00
  12.500   16.19  -18.38   -1.08   0.000   0.200   0.000    0.00
  12.550   15.58  -16.47   -1.33   0.000   0.200   0.000    0.00
  12.600   16.12  -18.30   -1.78   0.000   0.200   0.000    0.00
  12.650   15.62  -19.89   -2.82   0.000   0.200   0.000    0.00
  12.700   15.40  -19.71   -2.83   0.000   0.200   0.000    0.00
  12.750   15.71  -18.46   -2.75   0.000   0.200   0.000    0.00
  12.800   15.82  -14.19   -3.80   0.000   0.200   0.000    0.00
  12.850   16.50  -13.42   -3.49   0.000   0.200   0.000    0.00
  12.900   16.47  -12.49   -3.99   0.000   0.200   0.000    0.00
  12.950   15.91  -11.24   -4.36   0.000   0.200   0.000    0.00
  13.000   15.88  -10.46   -4.24   0.000   0.200   0.000    0.00
  13.050   16.68   -9.06   -3.02   0.000   0.200   0.000    0.00
  13.100   16.49   -7.17   -2.78   0.000   0.200   0.000    0.00
  13.150   16.01  -12.32   -2.56   0.000   0.200   0.000    0.00
  13.200   16.93  -11.97   -2.83   0.000   0.200   0.000    0.00
  13.250   17.32  -12.28   -2.42   0.000   0.200   0.000    0.00
  13.300   17.32  -11.94   -2.41   0.000   0.200   0.000    0.00
  13.350   17.69  -12.19   -2.66   0.000   0.200   0.000    0.00
  13.400   17.36  -14.47   -3.05   0.000   0.200   0.000    0.00
  13.450   17.64  -13.34   -3.91   0.000   0.200   0.000    0.00
  13.500   17.55  -15.05   -3.71   0.000   0.200   0.000    0.00
  13.550   17.76  -12.90   -3.19   0.000   0.200   0.000    0.00
  13.600   17.83  -10.40   -4.25   0.000   0.200   0.000    0.00
  13.650   16.84  -13.07   -3.61   0.000   0.200   0.000    0.00
  13.700   17.22  -11.61   -3.01   0.000   0.200   0.000    0.00
  13.750   17.00  -10.07   -2.91   0.000   0.200   0.000    0.00
  13.800   17.10  -13.09   -2.06   0.000   0.200   0.000    0.00
  13.850   17.28  -12.05   -0.96   0.000   0.200   0.000    0.00
  13.900   16.80  -12.86   -2.09   0.000   0.200   0.000    0.00
  13.950   17.00  -11.23   -1.25   0.000   0.200   0.000    0.00
  14.000   17.70  -10.44   -0.61   0.000   0.200   0.000    0.00
  14.050   16.38   -9.24   -0.63   0.000   0.200   0.000    0.00
  14.100   16.28  -10.73   -0.43   0.000   0.200   0.000    0.00
  14.150   16.27  -12.93   -1.95   0.000   0.200   0.000    0.00
  14.200   16.56  -12.24   -1.24   0.000   0.200   0.000    0.00
  14.250   16.14  -13.57   -0.96   0.000   0.200   0.000    0.00
  14.300   16.50   -9.52   -0.69   0.000   0.200   0.000    0.00
  14.350   15.64   -9.79    0.25   0.000   0.200   0.000    0.00
  14.400   15.65   -8.46    0.68   0.000   0.200   0.000    0.00
  14.450   17.20   -7.90    0.76   0.000   0.200   0.000    0.00
  14.500   17.07  -12.27   -0.25   0.000   0.200   0.000    0.00
  14.550   17.36  -11.47   -1.14   0.000   0.200   0.000    0.00
  14.600   16.53   -7.66   -0.40   0.000   0.200   0.000    0.00
  14.650   16.34   -8.24   -0.13   0.000   0.200   0.000    0.00
  14.700   16.32  -10.16   -0.38   0.000   0.200   0.000    0.00
  14.750   16.35   -7.58   -0.42   0.000   0.200   0.000    0.00
  14.800   15.92   -6.57   -0.67   0.000   0.200   0.000    0.00
  14.850   15.88   -8.18   -0.34   0.000   0.200   0.000    0.00
  14.900   16.13   -9.13   -0.26   0.000   0.200   0.000    0.00
  14.950   16.22   -7.49    0.17   0.000   0.200   0.000    0.00
  15.000   16.63   -9.03    0.72   0.000   0.200   0.000    0.00
  15.050   16.78   -5.63   -0.20   0.000   0.200   0.000    0.00
  15.100   16.33   -3.79   -0.83   0.000   0.200   0.000    0.00
  15.150   16.28   -4.01   -1.87   0.000   0.200   0.000    0.00
  15.200   15.15   -3.92   -0.79   0.000   0.200   0.000    0.00
  15.250   15.74   -5.92   -0.65   0.000   0.200   0.000    0.00
  15.300   15.40   -7.11    0.25   0.000   0.200   0.000    0.00
  15.350   14.22   -4.42    0.14   0.000   0.200   0.000    0.00
  15.400   15.41   -4.66    0.93   0.000   0.200   0.000    0.00
  15.450   16.30   -3.40    0.42   0.000   0.200   0.000    0.00
  15.500   15.55    1.52   -0.50   0.000   0.200   0.000    0.00
  15.550   15.74    1.27   -1.11   0.000   0.200   0.000    0.00
  15.600   16.93    1.51   -1.26   0.000   0.200   0.000    0.00
  15.650   17.25    3.52   -0.19   0.000   0.200   0.000    0.00
  15.700   16.65    0.61   -0.53   0.000   0.200   0.000    0.00
  15.750   15.88   -0.43    0.12   0.000   0.200   0.000    0.00
  15.800   15.38   -1.40   -0.01   0.000   0.200   0.000    0.00
  15.850   14.81   -0.58   -1.05   0.000   0.200   0.000    0.00
  15.900   13.97    1.47   -2.40   0.000   0.200   0.000    0.00
  15.950   15.04    3.55   -2.15   0.000   0.200   0.000    0.00
  16.000   16.06    2.93   -1.69   0.000   0.200   0.000    0.00
  16.050   16.40   -0.39   -1.59   0.000   0.200   0.000    0.00
  16.100   16.53   -3.78   -0.70   0.000   0.200   0.000    0.00
  16.150   16.21   -1.86   -0.24   0.000   0.200   0.000    0.00
  16.200   17.03    1.89   -0.70   0.000   0.200   0.000    0.00
  16.250   17.04   -1.99   -0.81   0.000   0.200   0.000    0.00
  16.300   16.70    3.00   -0.12   0.000   0.200   0.000    0.00
  16.350   16.59    6.77   -0.48   0.000   0.200   0.000    0.00
  16.400   15.69    5.11   -0.13   0.000   0.200   0.000    0.00
  16.450   15.75    5.32   -0.22   0.000   0.200   0.000    0.00
  16.500   16.58    8.38   -0.54   0.000   0.200   0.000    0.00
  16.550   16.91    3.16   -2.04   0.000   0.200   0.000    0.00
  16.600   16.92    5.09   -2.83   0.000   0.200   0.000    0.00
  16.650   16.40    1.86   -3.42   0.000   0.200   0.000    0.00
  16.700   15.77    3.09   -3.36   0.000   0.200   0.000    0.00
  16.750   16.92    1.65   -2.68   0.000   0.200   0.000    0.00
  16.800   16.79    3.18   -3.14   0.000   0.200   0.000    0.00
  16.850   16.03    1.13   -2.12   0.000   0.200   0.000    0.00
  16.900   15.71   -4.30   -0.68   0.000   0.200   0.000    0.00
  16.950   15.54   -5.28   -1.01   0.000   0.200   0.000    0.00
  17.000   15.36   -4.06   -1.13   0.000   0.200   0.000    0.00
  17.050   16.27   -5.25   -0.79   0.000   0.200   0.000    0.00
  17.100   16.68   -4.79   -0.90   0.000   0.200   0.000    0.00
  17.150   16.49   -4.32   -0.91   0.000   0.200   0.000    0.00
  17.200   16.13   -5.02   -1.33   0.000   0.200   0.000    0.00
  17.250   15.97   -3.58   -1.31   0.000   0.200   0.000    0.00
  17.300   16.44   -1.74   -1.57   0.000   0.200   0.000    0.00
  17.350   17.26   -2.02   -0.94   0.000   0.200   0.000    0.00
  17.400   16.96   -1.35   -0.55   0.000   0.200   0.000    0.00
  17.450   17.12    0.01    0.08   0.000   0.200   0.000    0.00
  17.500   16.66    1.57    0.48   0.000   0.200   0.000    0.00
  17.550   16.91    1.16    0.38   0.000   0.200   0.000    0.00
  17.600   16.47    1.08    0.11   0.000   0.200   0.000    0.00
  17.650   17.06   -1.33    0.60   0.000   0.200   0.000    0.00
  17.700   16.97   -2.80    0.89   0.000   0.200   0.000    0.00
  17.750   16.47   -4.85    0.12   0.000   0.200   0.000    0.00
  17.800   17.54   -7.24    0.33   0.000   0.200   0.000    0.00
  17.850   17.11   -5.31   -0.35   0.000   0.200   0.000    0.00
  17.900   15.92   -9.67   -0.32   0.000   0.200   0.000    0.00
  17.950   16.48   -9.87    0.10   0.000   0.200   0.000    0.00
  18.000   16.21   -8.36    0.32   0.000   0.200   0.000    0.00
  18.050   16.79   -9.68   -0.41   0.000   0.200   0.000    0.00
  18.100   16.80   -5.63   -0.27   0.000   0.200   0.000    0.00
  18.150   16.66   -4.88   -1.08   0.000   0.200   0.000    0.00
  18.200   17.39   -7.54   -0.23   0.000   0.200   0.000    0.00
  18.250   17.86   -6.13    0.38   0.000   0.200   0.000    0.00
  18.300   18.70   -2.82    0.22   0.000   0.200   0.000    0.00
  18.350   19.79   -0.54    0.10   0.000   0.200   0.000    0.00
  18.400   19.34   -1.30   -0.09   0.000   0.200   0.000    0.00
  18.450   18.41    0.54   -0.37   0.000   0.200   0.000    0.00
  18.500   18.81    0.88   -1.19   0.000   0.200   0.000    0.00
  18.550   19.57    3.42   -0.52   0.000   0.200   0.000    0.00
  18.600   19.94    0.09   -1.39   0.000   0.200   0.000    0.00
  18.650   18.43   -1.55   -2.04   0.000   0.200   0.000    0.00
  18.700   18.10   -0.97   -2.60   0.000   0.200   0.000    0.00
  18.750   17.73   -0.78   -2.28   0.000   0.200   0.000    0.00
  18.800   17.79    2.31   -1.47   0.000   0.200   0.000    0.00
  18.850   18.24    0.18   -1.56   0.000   0.200   0.000    0.00
  18.900   17.90   -0.05   -1.81   0.000   0.200   0.000    0.00
  18.950   17.61   -0.72   -1.73   0.000   0.200   0.000    0.00
  19.000   17.42   -4.00   -2.10   0.000   0.200   0.000    0.00
  19.050   18.23   -1.80   -2.17   0.000   0.200   0.000    0.00
  19.100   18.12    0.14   -1.28   0.000   0.200   0.000    0.00
  19.150   17.78   -0.16   -0.88   0.000   0.200   0.000    0.00
  19.200   17.28    0.18   -0.59   0.000   0.200   0.000    0.00
  19.250   17.21    1.37   -0.54   0.000   0.200   0.000    0.00
  19.300   17.80   -1.54   -0.69   0.000   0.200   0.000    0.00
  19.350   18.03   -1.64   -1.40   0.000   0.200   0.000    0.00
  19.400   18.11   -4.60   -1.34   0.000   0.200   0.000    0.00
  19.450   17.31   -6.20   -1.79   0.000   0.200   0.000    0.00
  19.500   18.25   -7.88   -1.46   0.000   0.200   0.000    0.00
  19.550   18.40   -9.28   -1.99   0.000   0.200   0.000    0.00
  19.600   17.43  -13.24   -1.29   0.000   0.200   0.000    0.00
  19.650   18.41   -9.61   -0.83   0.000   0.200   0.000    0.00
  19.700   18.77   -7.33   -0.63   0.000   0.200   0.000    0.00
  19.750   18.50   -8.30   -0.30   0.000   0.200   0.000    0.00
  19.800   18.48   -9.76   -0.25   0.000   0.200   0.000    0.00
  19.850   18.29   -9.37   -0.56   0.000   0.200   0.000    0.00
  19.900   19.11   -9.02   -1.08   0.000   0.200   0.000    0.00
  19.950   18.77   -6.83   -0.69   0.000   0.200   0.000    0.00
  20.000   17.84   -5.68   -0.19   0.000   0.200   0.000    0.00
  20.050   18.50   -6.27   -0.61   0.000   0.200   0.000    0.00
  20.100   18.74   -7.67    0.12   0.000   0.200   0.000    0.00
  20.150   19.07   -8.40    0.07   0.000   0.200   0.000    0.00
  20.200   19.29   -4.11   -0.09   0.000   0.200   0.000    0.00
  20.250   19.27   -3.30   -0.32   0.000   0.200   0.000    0.00
  20.300   19.48   -5.97   -0.18   0.000   0.200   0.000    0.00
  20.350   20.46   -2.50    0.87   0.000   0.200   0.000    0.00
  20.400   20.23   -2.13    2.50   0.000   0.200   0.000    0.00
  20.450   20.16   -1.22    2.19   0.000   0.200   0.000    0.00
  20.500   19.84    1.31    2.08   0.000   0.200   0.000    0.00
  20.550   20.53    0.65    1.50   0.000   0.200   0.000    0.00
  20.600   20.35   -1.71    0.72   0.000   0.200   0.000    0.00
  20.650   20.51   -0.62    1.56   0.000   0.200   0.000    0.00
  20.700   19.91   -1.71    2.02   0.000   0.200   0.000    0.00
  20.750   19.57    0.04    1.55   0.000   0.200   0.000    0.00
  20.800   19.29   -2.33    2.40   0.000   0.200   0.000    0.00
  20.850   18.96   -4.03    3.54   0.000   0.200   0.000    0.00
  20.900   19.69   -5.03    3.16   0.000   0.200   0.000    0.00
  20.950   20.25   -5.04    2.93   0.000   0.200   0.000    0.00
  21.000   19.21   -5.20    2.95   0.000   0.200   0.000    0.00
  21.050   19.12   -6.07    3.17   0.000   0.200   0.000    0.00
  21.100   20.09   -3.71    2.69   0.000   0.200   0.000    0.00
  21.150   20.56   -5.08    3.09   0.000   0.200   0.000    0.00
  21.200   20.54   -6.48    3.83   0.000   0.200   0.000    0.00
  21.250   20.46   -5.92    4.28   0.000   0.200   0.000    0.00
  21.300   19.67   -8.48    3.90   0.000   0.200   0.000    0.00
  21.350   20.63  -10.87    3.92   0.000   0.200   0.000    0.00
  21.400   21.41  -10.44    3.84   0.000   0.200   0.000    0.00
  21.450   21.69   -8.13    3.85   0.000   0.200   0.000    0.00
  21.500   22.11   -8.10    3.04   0.000   0.200   0.000    0.00
  21.550   21.45   -9.14    2.28   0.000   0.200   0.000    0.00
  21.600   20.89   -8.95    1.71   0.000   0.200   0.000    0.00
  21.650   21.51  -10.44    0.73   0.000   0.200   0.000    0.00
  21.700   20.46   -9.97    0.67   0.000   0.200   0.000    0.00
  21.750   20.98   -9.01    0.25   0.000   0.200   0.000    0.00
  21.800   21.13   -9.90   -0.55   0.000   0.200   0.000    0.00
  21.850   20.68  -10.89   -1.29   0.000   0.200   0.000    0.00
  21.900   20.69   -8.42   -2.10   0.000   0.200   0.000    0.00
  21.950   20.06   -7.23   -1.37   0.000   0.200   0.000    0.00
  22.000   19.82   -8.00   -2.05   0.000   0.200   0.000    0.00
  22.050   19.72   -7.24   -2.43   0.000   0.200   0.000    0.00
  22.100   19.66   -4.88   -2.66   0.000   0.200   0.000    0.00
  22.150   20.63   -7.49   -2.73   0.000   0.200   0.000    0.00
  22.200   20.97   -8.73   -2.49   0.000   0.200   0.000    0.00
  22.250   21.28   -8.58   -2.57   0.000   0.200   0.000    0.00
  22.300   20.56   -8.16   -2.91   0.000   0.200   0.000    0.00
  22.350   20.00   -9.15   -2.70   0.000   0.200   0.000    0.00
  22.400   19.70   -7.81   -2.34   0.000   0.200   0.000    0.00
  22.450   19.69   -8.03   -2.70   0.000   0.200   0.000    0.00
  22.500   19.67   -9.54   -3.08   0.000   0.200   0.000    0.00
  22.550   20.91   -7.49   -3.24   0.000   0.200   0.000    0.00
  22.600   21.21   -7.71   -2.80   0.000   0.200   0.000    0.00
  22.650   22.08   -7.64   -3.01   0.000   0.200   0.000    0.00
  22.700   22.20   -5.44   -2.59   0.000   0.200   0.000    0.00