! This hub-height wind-speed file was generated by TurbSim (from OpenFAST--128-NOTFOUND) on 04-Nov-2023 at 12:07:37.
!
! The requested statistics for this data were:
!    Mean Total Wind Speed =   20.000 m/s
!    Turbulence Intensity  =   14.420%
!
!   Time  HorSpd  WndDir  VerSpd  HorShr  VerShr  LnVShr  GstSpd
!  (sec)   (m/s)   (deg)   (m/s)     (-)     (-)     (-)   (m/s)
   0.000   20.98   21.31   -1.24   0.000   0.200   0.000    0.00
   0.050   21.00   20.04   -0.90   0.000   0.200   0.000    0.00
   0.100   20.46   17.88   -0.59   0.000   0.200   0.000    0.00
   0.150   20.71   19.61   -1.24   0.000   0.200   0.000    0.00
   0.200   20.57   15.88   -1.16   0.000   0.200   0.000    0.00
   0.250   21.04   14.62   -0.80   0.000   0.200   0.000    0.00
   0.300   21.00   15.79   -2.12   0.000   0.200   0.000    0.00
   0.350   20.54   14.24   -2.70   0.000   0.200   0.000    0.00
   0.400   19.96   15.64   -2.35   0.000   0.200   0.000    0.00
   0.450   19.61   14.78   -2.63   0.000   0.200   0.000    0.00
   0.500   19.62   11.62   -2.47   0.000   0.200   0.000    0.00
   0.550   19.64   11.68   -1.85   0.000   0.200   0.000    0.00
   0.600   20.51   12.05   -1.90   0.000   0.200   0.000    0.00
   0.650   20.60   11.32   -2.30   0.000   0.200   0.000    0.00
   0.700   20.51   13.09   -3.32   0.000   0.200   0.000    0.00
   0.750   20.95   12.92   -3.67   0.000   0.200   0.000    0.00
   0.800   20.81   14.52   -3.95   0.000   0.200   0.000    0.00
   0.850   21.58   12.53   -3.35   0.000   0.200   0.000    0.00
   0.900   23.08   11.09   -3.08   0.000   0.200   0.000    0.00
   0.950   22.54   13.17   -4.14   0.000   0.200   0.000    0.00
   1.000   23.19   10.54   -3.75   0.000   0.200   0.000    0.00
   1.050   23.49   12.21   -4.68   0.000   0.200   0.000    0.00
   1.100   23.95   14.45   -4.50   0.000   0.200   0.000    0.00
   1.150   23.45   11.83   -3.45   0.000   0.200   0.000    0.00
   1.200   23.26   13.42   -4.12   0.000   0.200   0.000    0.00
   1.250   24.21   15.12   -4.54   0.000   0.200   0.000    0.00
   1.300   24.31   14.29   -4.09   0.000   0.200   0.000    0.00
   1.350   24.30   13.84   -3.57   0.000   0.200   0.000    0.00
   1.400   24.11   14.08   -2.01   0.000   0.200   0.000    0.00
   1.450   23.73   12.08   -1.60   0.000   0.200   0.000    0.00
   1.500   23.61   13.05   -2.34   0.000   0.200   0.000    0.00
   1.550   23.52   13.58   -3.00   0.000   0.200   0.000    0.00
   1.600   23.74   13.77   -3.56   0.000   0.200   0.000    0.00
   1.650   24.03   14.50   -3.24   0.000   0.200   0.000    0.00
   1.700   24.46   14.30   -3.08   0.000   0.200   0.000    0.00
   1.750   24.01   11.94   -1.88   0.000   0.200   0.000    0.00
   1.800   23.57   10.07   -2.30   0.000   0.200   0.000    0.00
   1.850   23.72    9.50   -2.61   0.000   0.200   0.000    0.00
   1.900   23.89    9.31   -1.18   0.000   0.200   0.000    0.00
   1.950   23.08    7.37   -0.65   0.000   0.200   0.000    0.00
   2.000   22.39    7.19   -1.23   0.000   0.200   0.000    0.00
   2.050   21.85    6.96   -1.89   0.000   0.200   0.000    0.00
   2.100   21.68    7.72   -1.86   0.000   0.200   0.000    0.00
   2.150   21.34    6.84   -2.33   0.000   0.200   0.000    0.00
   2.200   21.47    5.39   -1.58   0.000   0.200   0.000    0.00
   2.250   20.83    6.25   -1.62   0.000   0.200   0.000    0.00
   2.300   21.65    9.16   -2.05   0.000   0.200   0.000    0.00
   2.350   20.73    6.92   -1.92   0.000   0.200   0.000    0.00
   2.400   21.08    4.81   -1.32   0.000   0.200   0.000    0.00
   2.450   21.15    7.18    0.70   0.000   0.200   0.000    0.00
   2.500   21.35    6.35    1.22   0.000   0.200   0.000    0.00
   2.550   21.93    7.86    0.62   0.000   0.200   0.000    0.00
   2.600   21.42   10.05    0.55   0.000   0.200   0.000    0.00
   2.650   21.18   10.19   -0.05   0.000   0.200   0.000    0.00
   2.700   22.02    9.94   -0.10   0.000   0.200   0.000    0.00
   2.750   21.77   10.76    0.74   0.000   0.200   0.000    0.00
   2.800   21.71   12.10    0.41   0.000   0.200   0.000    0.00
   2.850   21.69   11.94   -0.25   0.000   0.200   0.000    0.00
   2.900   21.35   11.39   -0.94   0.000   0.200   0.000    0.00
   2.950   21.51    9.55   -1.09   0.000   0.200   0.000    0.00
   3.000   21.57   10.71   -1.05   0.000   0.200   0.000    0.00
   3.050   22.44   11.52   -1.03   0.000   0.200   0.000    0.00
   3.100   21.54   13.89   -1.12   0.000   0.200   0.000    0.00
   3.150   21.03   11.73   -1.09   0.000   0.200   0.000    0.00
   3.200   20.96    9.29   -2.31   0.000   0.200   0.000    0.00
   3.250   21.18    5.52   -1.68   0.000   0.200   0.000    0.00
   3.300   21.16    3.59   -1.76   0.000   0.200   0.000    0.00
   3.350   21.06    4.39   -1.97   0.000   0.200   0.000    0.00
   3.400   21.13    7.57   -1.81   0.000   0.200   0.000    0.00
   3.450   21.59    5.43   -1.71   0.000   0.200   0.000    0.00
   3.500   21.39    3.07   -1.56   0.000   0.200   0.000    0.00
   3.550   21.76    1.92   -1.00   0.000   0.200   0.000    0.00
   3.600   21.41    3.37   -0.53   0.000   0.200   0.000    0.00
   3.650   21.75    2.89    0.10   0.000   0.200   0.000    0.00
   3.700   21.66    4.96    1.31   0.000   0.200   0.000    0.00
   3.750   21.71    4.70    1.88   0.000   0.200   0.000    0.00
   3.800   21.89    5.45    1.34   0.000   0.200   0.000    0.00
   3.850   22.10    0.77    0.81   0.000   0.200   0.000    0.00
   3.900   22.45    0.74    1.22   0.000   0.200   0.000    0.00
   3.950   23.21   -0.00    1.14   0.000   0.200   0.000    0.00
   4.000   23.26    0.56    0.65   0.000   0.200   0.000    0.00
   4.050   23.63   -0.32    0.57   0.000   0.200   0.000    0.00
   4.100   22.86    0.34   -0.03   0.000   0.200   0.000    0.00
   4.150   22.82   -0.87   -0.10   0.000   0.200   0.000    0.00
   4.200   22.87   -1.25    1.32   0.000   0.200   0.000    0.00
   4.250   22.89   -1.92    1.75   0.000   0.200   0.000    0.00
   4.300   22.79   -0.61    0.15   0.000   0.200   0.000    0.00
   4.350   23.14   -0.59    0.52   0.000   0.200   0.000    0.00
   4.400   23.57   -2.37    0.31   0.000   0.200   0.000    0.00
   4.450   22.28   -5.33   -0.93   0.000   0.200   0.000    0.00
   4.500   21.50   -3.74   -1.48   0.000   0.200   0.000    0.00
   4.550   21.30   -0.94   -1.06   0.000   0.200   0.000    0.00
   4.600   20.95   -1.81   -0.88   0.000   0.200   0.000    0.00
   4.650   21.20   -1.03    0.01   0.000   0.200   0.000    0.00
   4.700   21.42   -3.28    0.59   0.000   0.200   0.000    0.00
   4.750   21.01   -1.28    0.04   0.000   0.200   0.000    0.00
   4.800   21.30   -1.17   -0.48   0.000   0.200   0.000    0.00
   4.850   21.36   -3.40   -0.50   0.000   0.200   0.000    0.00
   4.900   21.28   -3.69   -0.98   0.000   0.200   0.000    0.00
   4.950   21.62   -2.02   -0.76   0.000   0.200   0.000    0.00
   5.000   21.65   -2.43   -0.17   0.000   0.200   0.000    0.00
   5.050   21.35   -4.63   -0.23   0.000   0.200   0.000    0.00
   5.100   20.27   -3.07   -0.29   0.000   0.200   0.000    0.00
   5.150   19.62   -5.88    0.22   0.000   0.200   0.000    0.00
   5.200   19.77   -8.70    0.64   0.000   0.200   0.000    0.00
   5.250   19.57   -5.03   -0.21   0.000   0.200   0.000    0.00
   5.300   19.06   -8.49   -0.40   0.000   0.200   0.000    0.00
   5.350   19.24   -9.94   -0.44   0.000   0.200   0.000    0.00
   5.400   19.98   -7.48   -0.72   0.000   0.200   0.000    0.00
   5.450   20.17  -12.18   -0.61   0.000   0.200   0.000    0.00
   5.500   21.28  -13.18   -1.29   0.000   0.200   0.000    0.00
   5.550   21.55  -12.95   -0.68   0.000   0.200   0.000    0.00
   5.600   21.35  -12.12   -1.71   0.000   0.200   0.000    0.00
   5.650   21.90   -9.75   -2.69   0.000   0.200   0.000    0.00
   5.700   21.47  -10.16   -2.62   0.000   0.200   0.000    0.00
   5.750   21.34   -7.87   -2.62   0.000   0.200   0.000    0.00
   5.800   22.77   -6.66   -1.57   0.000   0.200   0.000    0.00
   5.850   22.61   -7.56   -1.53   0.000   0.200   0.000    0.00
   5.900   22.34   -7.79   -0.32   0.000   0.200   0.000    0.00
   5.950   22.39   -6.63    0.27   0.000   0.200   0.000    0.00
   6.000   21.76   -7.06   -0.31   0.000   0.200   0.000    0.00
   6.050   21.41   -7.37   -0.45   0.000   0.200   0.000    0.00
   6.100   21.60   -8.01   -0.80   0.000   0.200   0.000    0.00
   6.150   21.41  -10.92   -1.30   0.000   0.200   0.000    0.00
   6.200   21.82  -10.69   -2.28   0.000   0.200   0.000    0.00
   6.250   21.72  -10.17   -2.69   0.000   0.200   0.000    0.00
   6.300   21.43  -11.92   -2.56   0.000   0.200   0.000    0.00
   6.350   21.86  -11.57   -1.99   0.000   0.200   0.000    0.00
   6.400   22.53   -9.67   -1.76   0.000   0.200   0.000    0.00
   6.450   22.32   -7.08   -1.37   0.000   0.200   0.000    0.00
   6.500   21.92   -7.84   -1.47   0.000   0.200   0.000    0.00
   6.550   21.66   -7.41   -0.48   0.000   0.200   0.000    0.00
   6.600   21.08   -7.34   -0.97   0.000   0.200   0.000    0.00
   6.650   21.22   -6.89   -0.98   0.000   0.200   0.000    0.00
   6.700   21.21   -6.14   -1.08   0.000   0.200   0.000    0.00
   6.750   21.13   -5.31   -0.79   0.000   0.200   0.000    0.00
   6.800   21.82   -4.01   -0.74   0.000   0.200   0.000    0.00
   6.850   22.17   -5.20   -1.42   0.000   0.200   0.000    0.00
   6.900   21.38   -4.73   -2.32   0.000   0.200   0.000    0.00
   6.950   21.75   -6.60   -2.35   0.000   0.200   0.000    0.00
   7.000   22.61   -4.99   -2.23   0.000   0.200   0.000    0.00
   7.050   23.20   -5.53   -2.40   0.000   0.200   0.000    0.00
   7.100   23.14   -3.35   -2.70   0.000   0.200   0.000    0.00
   7.150   22.31   -1.77   -2.70   0.000   0.200   0.000    0.00
   7.200   22.33   -1.22   -3.41   0.000   0.200   0.000    0.00
   7.250   23.02   -2.36   -2.67   0.000   0.200   0.000    0.00
   7.300   23.25   -2.01   -2.29   0.000   0.200   0.000    0.00
   7.350   23.70   -2.72   -2.79   0.000   0.200   0.000    0.00
   7.400   23.10   -3.36   -2.61   0.000   0.200   0.000    0.00
   7.450   23.23   -2.76   -2.17   0.000   0.200   0.000    0.00
   7.500   22.86   -3.62   -2.43   0.000   0.200   0.000    0.00
   7.550   23.36   -3.49   -2.90   0.000   0.200   0.000    0.00
   7.600   23.17   -2.35   -2.78   0.000   0.200   0.000    0.00
   7.650   23.84   -2.10   -3.06   0.000   0.200   0.000    0.00
   7.700   24.30   -2.14   -1.53   0.000   0.200   0.000    0.00
   7.750   24.11   -5.32   -1.35   0.000   0.200   0.000    0.00
   7.800   23.16   -3.31   -1.08   0.000   0.200   0.000    0.00
   7.850   22.62   -5.10   -1.81   0.000   0.200   0.000    0.00
   7.900   22.40   -3.38   -2.49   0.000   0.200   0.000    0.00
   7.950   23.60   -2.27   -2.20   0.000   0.200   0.000    0.00
   8.000   22.57   -2.10   -2.61   0.000   0.200   0.000    0.00
   8.050   23.10    1.08   -3.56   0.000   0.200   0.000    0.00
   8.100   22.11    2.25   -3.21   0.000   0.200   0.000    0.00
   8.150   21.79    1.30   -3.68   0.000   0.200   0.000    0.00
   8.200   22.40   -0.36   -3.37   0.000   0.200   0.000    0.00
   8.250   22.06   -0.16   -2.66   0.000   0.200   0.000    0.00
   8.300   22.63    0.20   -2.20   0.000   0.200   0.000    0.00
   8.350   22.26    0.48   -2.27   0.000   0.200   0.000    0.00
   8.400   22.24   -1.74   -3.74   0.000   0.200   0.000    0.00
   8.450   22.08    0.10   -3.79   0.000   0.200   0.000    0.00
   8.500   21.88    0.95   -2.77   0.000   0.200   0.000    0.00
   8.550   22.20    3.30   -3.21   0.000   0.200   0.000    0.00
   8.600   21.90    2.74   -2.85   0.000   0.200   0.000    0.00
   8.650   20.98    2.14   -3.33   0.000   0.200   0.000    0.00
   8.700   20.16   -0.24   -3.13   0.000   0.200   0.000    0.00
   8.750   20.45   -2.10   -3.66   0.000   0.200   0.000    0.00
   8.800   20.58   -4.92   -3.35   0.000   0.200   0.000    0.00
   8.850   20.15   -5.01   -2.57   0.000   0.200   0.000    0.00
   8.900   20.09   -5.11   -3.11   0.000   0.200   0.000    0.00
   8.950   20.43   -4.80   -3.26   0.000   0.200   0.000    0.00
   9.000   20.99   -5.33   -3.61   0.000   0.200   0.000    0.00
   9.050   21.51   -5.46   -2.99   0.000   0.200   0.000    0.00
   9.100   21.90   -5.43   -2.44   0.000   0.200   0.000    0.00
   9.150   20.99   -3.75   -2.12   0.000   0.200   0.000    0.00
   9.200   20.41   -2.18   -2.05   0.000   0.200   0.000    0.00
   9.250   22.01   -2.79   -1.42   0.000   0.200   0.000    0.00
   9.300   21.73   -2.11   -2.76   0.000   0.200   0.000    0.00
   9.350   21.75   -2.83   -1.78   0.000   0.200   0.000    0.00
   9.400   20.91   -2.24   -2.75   0.000   0.200   0.000    0.00
   9.450   21.03    0.01   -2.94   0.000   0.200   0.000    0.00
   9.500   22.82    1.33   -3.20   0.000   0.200   0.000    0.00
   9.550   22.30    1.66   -3.88   0.000   0.200   0.000    0.00
   9.600   22.20    1.36   -4.78   0.000   0.200   0.000    0.00
   9.650   21.91    3.15   -5.05   0.000   0.200   0.000    0.00
   9.700   21.51    3.45   -4.79   0.000   0.200   0.000    0.00
   9.750   21.28    6.03   -4.44   0.000   0.200   0.000    0.00
   9.800   21.88    5.23   -4.58   0.000   0.200   0.000    0.00
   9.850   21.42    5.19   -5.22   0.000   0.200   0.000    0.00
   9.900   21.58    3.89   -5.90   0.000   0.200   0.000    0.00
   9.950   21.64    5.44   -5.13   0.000   0.200   0.000    0.00
  10.000   21.29    4.76   -5.41   0.000   0.200   0.000    0.00
  10.050   21.53    4.47   -5.83   0.000   0.200   0.000    0.00
  10.100   21.25    4.05   -5.30   0.000   0.200   0.000    0.00
  10.150   21.40    4.42   -5.05   0.000   0.200   0.000    0.00
  10.200   20.07    6.35   -4.63   0.000   0.200   0.000    0.00
  10.250   20.65    3.69   -5.10   0.000   0.200   0.000    0.00
  10.300   21.34    2.96   -5.36   0.000   0.200   0.000    0.00
  10.350   21.50    5.35   -5.35   0.000   0.200   0.000    0.00
  10.400   22.31    6.16   -6.12   0.000   0.200   0.000    0.00
  10.450   22.54    4.63   -7.08   0.000   0.200   0.000    0.00
  10.500   22.68    3.40   -5.96   0.000   0.200   0.000    0.00
  10.550   22.16    2.35   -6.30   0.000   0.200   0.000    0.00
  10.600   22.51    1.44   -6.10   0.000   0.200   0.000    0.00
  10.650   22.51    1.67   -6.18   0.000   0.200   0.000    0.00
  10.700   23.07    1.43   -5.72   0.000   0.200   0.000    0.00
  10.750   22.95    2.07   -5.71   0.000   0.200   0.000    0.00
  10.800   23.36    2.73   -5.22   0.000   0.200   0.000    0.00
  10.850   24.14    2.88   -5.12   0.000   0.200   0.000    0.00
  10.900   23.56    4.14   -5.30   0.000   0.200   0.000    0.00
  10.950   23.72    8.39   -5.08   0.000   0.200   0.000    0.00
  11.000   23.00    4.54   -4.76   0.000   0.200   0.000    0.00
  11.050   23.30    2.76   -4.28   0.000   0.200   0.000    0.00
  11.100   23.69    4.05   -5.27   0.000   0.200   0.000    0.00
  11.150   23.90    4.12   -4.02   0.000   0.200   0.000    0.00
  11.200   23.30    3.66   -3.60   0.000   0.200   0.000    0.00
  11.250   23.20    0.24   -3.12   0.000   0.200   0.000    0.00
  11.300   22.36   -1.68   -4.40   0.000   0.200   0.000    0.00
  11.350   22.34   -1.26   -3.90   0.000   0.200   0.000    0.00
  11.400   22.01    0.27   -3.84   0.000   0.200   0.000    0.00
  11.450   21.65   -2.22   -4.42   0.000   0.200   0.000    0.00
  11.500   22.19   -2.95   -3.89   0.000   0.200   0.000    0.00
  11.550   22.19   -2.86   -3.72   0.000   0.200   0.000    0.00
  11.600   21.90   -3.53   -4.46   0.000   0.200   0.000    0.00
  11.650   21.48   -2.87   -4.31   0.000   0.200   0.000    0.00
  11.700   21.90   -3.23   -3.29   0.000   0.200   0.000    0.00
  11.750   22.06    1.15   -3.59   0.000   0.200   0.000    0.00
  11.800   22.87    0.67   -4.30   0.000   0.200   0.000    0.00
  11.850   22.07   -0.53   -4.58   0.000   0.200   0.000    0.00
  11.900   22.27   -2.75   -4.71   0.000   0.200   0.000    0.00
  11.950   21.89   -4.59   -4.43   0.000   0.200   0.000    0.00
  12.000   21.96   -6.33   -5.24   0.000   0.200   0.000    0.00
  12.050   20.79   -3.95   -5.04   0.000   0.200   0.000    0.00
  12.100   19.44   -1.76   -4.29   0.000   0.200   0.000    0.00
  12.150   19.37   -1.55   -5.00   0.000   0.200   0.000    0.00
  12.200   19.61   -5.33   -4.25   0.000   0.200   0.000    0.00
  12.250   19.35   -5.15   -4.89   0.000   0.200   0.000    0.00
  12.300   20.32   -6.24   -4.85   0.000   0.200   0.000    0.00
  12.350   20.74  -10.01   -5.05   0.000   0.200   0.000    0.00
  12.400   20.68  -11.43   -5.18   0.000   0.200   0.000    0.00
  12.450   21.05  -11.04   -5.47   0.000   0.200   0.000    0.00
  12.500   21.22   -8.11   -5.86   0.000   0.200   0.000    0.00
  12.550   20.33   -8.19   -5.75   0.000   0.200   0.000    0.00
  12.600   19.78   -9.63   -5.28   0.000   0.200   0.000    0.00
  12.650   19.24   -8.93   -5.73   0.000   0.200   0.000    0.00
  12.700   19.17   -7.36   -5.77   0.000   0.200   0.000    0.00
  12.750   19.60   -5.67   -5.72   0.000   0.200   0.000    0.00
  12.800   20.35   -2.46   -5.38   0.000   0.200   0.000    0.00
  12.850   20.31    0.47   -5.04   0.000   0.200   0.000    0.00
  12.900   20.10    3.33   -4.99   0.000   0.200   0.000    0.00
  12.950   18.84    2.84   -5.26   0.000   0.200   0.000    0.00
  13.000   19.35    4.22   -4.57   0.000   0.200   0.000    0.00
  13.050   20.48    4.24   -4.66   0.000   0.200   0.000    0.00
  13.100   20.67    4.91   -5.84   0.000   0.200   0.000    0.00
  13.150   20.68    5.42   -4.83   0.000   0.200   0.000    0.00
  13.200   20.01    6.21   -4.58   0.000   0.200   0.000    0.00
  13.250   19.02    6.50   -5.48   0.000   0.200   0.000    0.00
  13.300   19.58    4.86   -5.33   0.000   0.200   0.000    0.00
  13.350   20.01    6.20   -6.39   0.000   0.200   0.000    0.00
  13.400   20.44    7.46   -5.18   0.000   0.200   0.000    0.00
  13.450   20.72    3.31   -3.98   0.000   0.200   0.000    0.00
  13.500   20.50    2.82   -4.12   0.000   0.200   0.000    0.00
  13.550   20.47    1.11   -3.59   0.000   0.200   0.000    0.00
  13.600   20.84    0.77   -3.30   0.000   0.200   0.000    0.00
  13.650   19.62    2.22   -2.64   0.000   0.200   0.000    0.00
  13.700   19.15    2.73   -2.65   0.000   0.200   0.000    0.00
  13.750   19.18    1.03   -2.08   0.000   0.200   0.000    0.00
  13.800   19.34    3.15   -1.27   0.000   0.200   0.000    0.00
  13.850   19.32    1.27   -1.23   0.000   0.200   0.000    0.00
  13.900   18.87    2.37   -1.41   0.000   0.200   0.000    0.00
  13.950   20.02    5.87   -1.64   0.000   0.200   0.000    0.00
  14.000   20.48    6.91   -1.70   0.000   0.200   0.000    0.00
  14.050   20.82    6.27   -1.92   0.000   0.200   0.000    0.00
  14.100   21.17    5.96   -1.07   0.000   0.200   0.000    0.00
  14.150   20.77    6.70   -1.27   0.000   0.200   0.000    0.00
  14.200   21.05    5.63   -1.15   0.000   0.200   0.000    0.00
  14.250   20.82    6.61   -1.76   0.000   0.200   0.000    0.00
  14.300   20.22    6.88   -1.70   0.000   0.200   0.000    0.00
  14.350   20.26    5.22   -2.02   0.000   0.200   0.000    0.00
  14.400   20.32    2.58   -1.45   0.000   0.200   0.000    0.00
  14.450   20.01    3.54   -2.09   0.000   0.200   0.000    0.00
  14.500   18.78    3.02   -1.77   0.000   0.200   0.000    0.00
  14.550   18.70    1.75   -2.07   0.000   0.200   0.000    0.00
  14.600   18.74    5.07   -1.07   0.000   0.200   0.000    0.00
  14.650   19.46    2.00   -1.06   0.000   0.200   0.000    0.00
  14.700   19.60    1.71    0.23   0.000   0.200   0.000    0.00
  14.750   19.68    1.10    0.97   0.000   0.200   0.000    0.00
  14.800   20.08    1.61    1.41   0.000   0.200   0.000    0.00
  14.850   19.83    2.82    1.66   0.000   0.200   0.000    0.00
  14.900   20.26    1.57    2.62   0.000   0.200   0.000    0.00
  14.950   20.38   -2.41    1.90   0.000   0.200   0.000    0.00
  15.000   20.67   -1.78    2.77   0.000   0.200   0.000    0.00
  15.050   20.97   -1.88    1.97   0.000   0.200   0.000    0.00
  15.100   20.99   -1.38    2.72   0.000   0.200   0.000    0.00
  15.150   21.00   -0.09    3.09   0.000   0.200   0.000    0.00
  15.200   21.61   -1.92    2.22   0.000   0.200   0.000    0.00
  15.250   20.88   -1.83    2.91   0.000   0.200   0.000    0.00
  15.300   20.98   -2.77    2.30   0.000   0.200   0.000    0.00
  15.350   21.10   -2.44    1.48   0.000   0.200   0.000    0.00
  15.400   21.93   -0.90    2.27   0.000   0.200   0.000    0.00
  15.450   22.77   -1.17    2.14   0.000   0.200   0.000    0.00
  15.500   23.08   -0.10    3.12   0.000   0.200   0.000    0.00
  15.550   22.36   -1.31    3.51   0.000   0.200   0.000    0.00
  15.600   22.90   -1.46    2.98   0.000   0.200   0.000    0.00
  15.650   22.17   -2.30    2.94   0.000   0.200   0.000    0.00
  15.700   21.71   -3.72    2.66   0.000   0.200   0.000    0.00
  15.750   21.67   -3.87    1.90   0.000   0.200   0.000    0.00
  15.800   21.87   -5.90    2.18   0.000   0.200   0.000    0.00
  15.850   21.91   -6.04    2.41   0.000   0.200   0.000    0.00
  15.900   22.14   -3.29    2.18   0.000   0.200   0.000    0.00
  15.950   23.01   -2.47    2.28   0.000   0.200   0.000    0.00
  16.000   21.81   -3.50    2.51   0.000   0.200   0.000    0.00
  16.050   21.71   -4.01    2.97   0.000   0.200   0.000    0.00
  16.100   22.76   -6.33    3.01   0.000   0.200   0.000    0.00
  16.150   22.26   -4.32    2.50   0.000   0.200   0.000    0.00
  16.200   21.51   -4.29    3.14   0.000   0.200   0.000    0.00
  16.250   21.53   -3.54    3.02   0.000   0.200   0.000    0.00
  16.300   21.23   -6.71    2.15   0.000   0.200   0.000    0.00
  16.350   21.95   -5.37    1.96   0.000   0.200   0.000    0.00
  16.400   21.41   -5.32    0.19   0.000   0.200   0.000    0.00
  16.450   21.48   -6.82    0.47   0.000   0.200   0.000    0.00
  16.500   21.75   -7.40    0.27   0.000   0.200   0.000    0.00
  16.550   21.74   -7.34    0.57   0.000   0.200   0.000    0.00
  16.600   22.27   -7.51    0.75   0.000   0.200   0.000    0.00
  16.650   22.25   -5.92   -0.12   0.000   0.200   0.000    0.00
  16.700   21.70   -6.34   -1.28   0.000   0.200   0.000    0.00
  16.750   21.10   -3.46   -1.28   0.000   0.200   0.000    0.00
  16.800   21.33   -2.49   -1.53   0.000   0.200   0.000    0.00
  16.850   21.68   -4.28   -0.40   0.000   0.200   0.000    0.00
  16.900   22.03   -4.57    0.68   0.000   0.200   0.000    0.00
  16.950   21.65   -3.21    0.89   0.000   0.200   0.000    0.00
  17.000   20.93   -1.92    0.93   0.000   0.200   0.000    0.00
  17.050   22.14   -4.39    1.29   0.000   0.200   0.000    0.00
  17.100   22.62   -5.65    1.36   0.000   0.200   0.000    0.00
  17.150   22.94   -3.24    1.14   0.000   0.200   0.000    0.00
  17.200   22.35   -2.24    0.64   0.000   0.200   0.000    0.00
  17.250   22.44   -3.19    1.12   0.000   0.200   0.000    0.00
  17.300   23.01   -2.78    1.88   0.000   0.200   0.000    0.00
  17.350   23.57   -2.02    1.14   0.000   0.200   0.000    0.00
  17.400   24.55    1.21    1.47   0.000   0.200   0.000    0.00
  17.450   24.43    1.67    0.22   0.000   0.200   0.000    0.00
  17.500   23.75    0.64   -0.17   0.000   0.200   0.000    0.00
  17.550   23.54    1.67   -0.60   0.000   0.200   0.000    0.00
  17.600   23.49    0.83   -1.01   0.000   0.200   0.000    0.00
  17.650   23.18   -2.30   -2.15   0.000   0.200   0.000    0.00
  17.700   24.28   -2.42   -1.54   0.000   0.200   0.000    0.00
  17.750   24.55   -2.62   -2.00   0.000   0.200   0.000    0.00
  17.800   24.09   -2.72   -2.00   0.000   0.200   0.000    0.00
  17.850   23.78   -0.93   -0.97   0.000   0.200   0.000    0.00
  17.900   23.76    0.50   -0.12   0.000   0.200   0.000    0.00
  17.950   23.95    0.26    0.08   0.000   0.200   0.000    0.00
  18.000   24.70    1.93    0.27   0.000   0.200   0.000    0.00
  18.050   23.92    4.09    0.80   0.000   0.200   0.000    0.00
  18.100   25.15    4.93    0.38   0.000   0.200   0.000    0.00
  18.150   23.93    1.94   -0.01   0.000   0.200   0.000    0.00
  18.200   23.48    1.89    0.05   0.000   0.200   0.000    0.00
  18.250   22.95    0.89   -0.05   0.000   0.200   0.000    0.00
  18.300   23.08    0.01    0.49   0.000   0.200   0.000    0.00
  18.350   22.84   -0.69    0.99   0.000   0.200   0.000    0.00
  18.400   22.24   -1.13    1.26   0.000   0.200   0.000    0.00
  18.450   22.27   -2.77    1.12   0.000   0.200   0.000    0.00
  18.500   23.48   -3.51    0.04   0.000   0.200   0.000    0.00
  18.550   24.31   -4.04    0.36   0.000   0.200   0.000    0.00
  18.600   24.66   -3.44   -0.19   0.000   0.200   0.000    0.00
  18.650   23.90   -1.62   -0.62   0.000   0.200   0.000    0.00
  18.700   22.73   -3.69   -0.49   0.000   0.200   0.000    0.00
  18.750   22.70   -5.13   -0.59   0.000   0.200   0.000    0.00
  18.800   21.48   -6.75   -0.58   0.000   0.200   0.000    0.00
  18.850   21.72   -5.04   -0.67   0.000   0.200   0.000    0.00
  18.900   21.18   -7.50   -1.12   0.000   0.200   0.000    0.00
  18.950   21.27   -8.57   -1.40   0.000   0.200   0.000    0.00
  19.000   20.76   -7.26   -0.53   0.000   0.200   0.000    0.00
  19.050   19.42   -5.35   -0.84   0.000   0.200   0.000    0.00
  19.100   18.83   -2.60    0.22   0.000   0.200   0.000    0.00
  19.150   18.57   -4.07   -0.15   0.000   0.200   0.000    0.00
  19.200   18.55   -6.47    0.13   0.000   0.200   0.000    0.00
  19.250   18.81   -3.58    1.41   0.000   0.200   0.000    0.00
  19.300   19.24   -3.02    1.84   0.000   0.200   0.000    0.00
  19.350   19.55   -4.48    2.42   0.000   0.200   0.000    0.00
  19.400   19.45   -4.83    1.96   0.000   0.200   0.000    0.00
  19.450   19.35   -2.37    1.89   0.000   0.200   0.000    0.00
  19.500   19.67   -2.84    1.46   0.000   0.200   0.000    0.00
  19.550   20.11   -2.54    0.50   0.000   0.200   0.000    0.00
  19.600   18.73   -2.15   -0.13   0.000   0.200   0.000    0.00
  19.650   18.82   -2.48   -0.65   0.000   0.200   0.000    0.00
  19.700   18.71   -2.96   -1.90   0.000   0.200   0.000    0.00
  19.750   18.10   -3.37   -2.27   0.000   0.200   0.000    0.00
  19.800   18.70   -4.14   -2.04   0.000   0.200   0.000    0.00
  19.850   19.60   -5.64   -1.20   0.000   0.200   0.000    0.00
  19.900   18.77   -4.31   -1.96   0.000   0.200   0.000    0.00
  19.950   19.02   -5.33   -1.34   0.000   0.200   0.000    0.00
  20.000   19.19   -5.98   -1.14   0.000   0.200   0.000    0.00
  20.050   18.93   -3.81   -1.61   0.000   0.200   0.000    0.00
  20.100   19.47   -3.06   -1.09   0.000   0.200   0.000    0.00
  20.150   20.35    0.62    0.27   0.000   0.200   0.000    0.00
  20.200   19.89    0.38    0.94   0.000   0.200   0.000    0.00
  20.250   20.24    0.71    0.22   0.000   0.200   0.000    0.00
  20.300   19.55    2.25    0.08   0.000   0.200   0.000    0.00
  20.350   19.75    0.59   -0.19   0.000   0.200   0.000    0.00
  20.400   19.50    0.49    0.58   0.000   0.200   0.000    0.00
  20.450   18.38   -1.73    0.90   0.000   0.200   0.000    0.00
  20.500   17.77   -2.42    1.45   0.000   0.200   0.000    0.00
  20.550   16.92   -4.03    1.02   0.000   0.200   0.000    0.00
  20.600   16.76   -4.28    1.19   0.000   0.200   0.000    0.00
  20.650   17.47   -5.03    1.17   0.000   0.200   0.000    0.00
  20.700   17.03   -5.22    0.91   0.000   0.200   0.000    0.00
  20.750   16.52   -5.37    0.93   0.000   0.200   0.000    0.00
  20.800   17.36   -0.80    0.91   0.000   0.200   0.000    0.00
  20.850   17.46   -0.98    0.99   0.000   0.200   0.000    0.00
  20.900   16.45   -1.21    0.12   0.000   0.200   0.000    0.00
  20.950   16.77   -0.45   -0.17   0.000   0.200   0.000    0.00
  21.000   16.88   -0.95    0.64   0.000   0.200   0.000    0.00
  21.050   15.53   -2.37    0.78   0.000   0.200   0.000    0.00
  21.100   15.81   -3.07    0.36   0.000   0.200   0.000    0.00
  21.150   15.95   -5.78    0.49   0.000   0.200   0.000    0.00
  21.200   16.39   -1.81   -0.28   0.000   0.200   0.000    0.00
  21.250   16.97   -1.60   -0.21   0.000   0.200   0.000    0.00
  21.300   16.68   -0.96    0.42   0.000   0.200   0.000    0.00
  21.350   17.20   -3.28    0.32   0.000   0.200   0.000    0.00
  21.400   18.44   -2.56    0.30   0.000   0.200   0.000    0.00
  21.450   18.56   -3.04   -0.06   0.000   0.200   0.000    0.00
  21.500   17.46   -5.88   -0.72   0.000   0.200   0.000    0.00
  21.550   17.90   -7.66   -0.97   0.000   0.200   0.000    0.00
  21.600   17.92   -7.88   -1.66   0.000   0.200   0.000    0.00
  21.650   17.49   -6.58   -2.08   0.000   0.200   0.000    0.00
  21.700   18.04   -7.93   -1.79   0.000   0.200   0.000    0.00
  21.750   18.26   -6.92   -2.12   0.000   0.200   0.000    0.00
  21.800   18.31   -6.80   -2.33   0.000   0.200   0.000    0.00
  21.850   17.78   -3.65   -1.91   0.000   0.200   0.000    0.00
  21.900   17.80   -3.83   -1.77   0.000   0.200   0.000    0.00
  21.950   18.02   -0.98   -3.09   0.000   0.200   0.000    0.00
  22.000   18.38   -4.14   -2.34   0.000   0.200   0.000    0.00
  22.050   18.03   -3.43   -2.46   0.000   0.200   0.000    0.00
  22.100   16.63    1.68   -2.25   0.000   0.200   0.000    0.00
  22.150   17.01    0.12   -1.52   0.000   0.200   0.000    0.00
  22.200   15.95   -1.46   -1.68   0.000   0.200   0.000    0.00
  22.250   16.31   -5.14    0.18   0.000   0.200   0.000    0.00
  22.300   16.15    1.77   -0.62   0.000   0.200   0.000    0.00
  22.350   16.55    3.74   -1.28   0.000   0.200   0.000    0.00
  22.400   16.16    0.12   -0.24   0.000   0.200   0.000    0.00
  22.450   15.56    0.08   -0.07   0.000   0.200   0.000    0.00
  22.500   15.26    1.30   -0.15   0.000   0.200   0.000    0.00
  22.550   15.59    0.28   -0.81   0.000   0.200   0.000    0.00
  22.600   16.57    2.38   -1.17   0.000   0.200   0.000    0.00
  22.650   17.26    1.65   -2.47   0.000   0.200   0.000    0.00
  22.700   17.22   -2.48   -2.60   0.000   0.200   0.000    0.00