! This hub-height wind-speed file was generated by TurbSim (from OpenFAST--128-NOTFOUND) on 04-Nov-2023 at 13:31:26.
!
! The requested statistics for this data were:
!    Mean Total Wind Speed =   20.000 m/s
!    Turbulence Intensity  =   14.420%
!
!   Time  HorSpd  WndDir  VerSpd  HorShr  VerShr  LnVShr  GstSpd
!  (sec)   (m/s)   (deg)   (m/s)     (-)     (-)     (-)   (m/s)
   0.000   20.38    1.94    3.84   0.000   0.200   0.000    0.00
   0.050   20.67    3.18    3.91   0.000   0.200   0.000    0.00
   0.100   20.87    4.14    3.24   0.000   0.200   0.000    0.00
   0.150   21.18    4.52    3.95   0.000   0.200   0.000    0.00
   0.200   20.57    3.24    4.31   0.000   0.200   0.000    0.00
   0.250   20.93    5.28    4.54   0.000   0.200   0.000    0.00
   0.300   20.79    3.41    4.53   0.000   0.200   0.000    0.00
   0.350   20.74    2.42    2.82   0.000   0.200   0.000    0.00
   0.400   21.00    6.19    4.44   0.000   0.200   0.000    0.00
   0.450   20.78    6.36    4.49   0.000   0.200   0.000    0.00
   0.500   20.69    5.41    5.00   0.000   0.200   0.000    0.00
   0.550   20.86    4.09    4.47   0.000   0.200   0.000    0.00
   0.600   20.23    4.48    4.15   0.000   0.200   0.000    0.00
   0.650   19.90    4.73    3.69   0.000   0.200   0.000    0.00
   0.700   20.05    4.09    3.69   0.000   0.200   0.000    0.00
   0.750   20.52    3.52    3.65   0.000   0.200   0.000    0.00
   0.800   21.15    4.04    3.75   0.000   0.200   0.000    0.00
   0.850   21.09    5.31    3.27   0.000   0.200   0.000    0.00
   0.900   20.33    3.30    2.34   0.000   0.200   0.000    0.00
   0.950   19.98    0.90    2.18   0.000   0.200   0.000    0.00
   1.000   20.77    0.56    2.73   0.000   0.200   0.000    0.00
   1.050   21.03   -3.10    2.40   0.000   0.200   0.000    0.00
   1.100   20.83   -0.63    2.61   0.000   0.200   0.000    0.00
   1.150   20.70    2.51    2.62   0.000   0.200   0.000    0.00
   1.200   20.02   -0.35    2.47   0.000   0.200   0.000    0.00
   1.250   20.14   -0.52    3.03   0.000   0.200   0.000    0.00
   1.300   20.22    0.21    3.90   0.000   0.200   0.000    0.00
   1.350   21.34    1.38    3.77   0.000   0.200   0.000    0.00
   1.400   21.92    2.11    3.45   0.000   0.200   0.000    0.00
   1.450   21.80    4.17    2.40   0.000   0.200   0.000    0.00
   1.500   22.05    4.56    2.50   0.000   0.200   0.000    0.00
   1.550   21.94    1.13    2.94   0.000   0.200   0.000    0.00
   1.600   22.51    1.95    3.24   0.000   0.200   0.000    0.00
   1.650   21.84    2.75    2.88   0.000   0.200   0.000    0.00
   1.700   21.89    3.39    4.13   0.000   0.200   0.000    0.00
   1.750   21.81    3.30    4.19   0.000   0.200   0.000    0.00
   1.800   21.93    0.86    4.51   0.000   0.200   0.000    0.00
   1.850   22.21    0.98    4.96   0.000   0.200   0.000    0.00
   1.900   21.68    2.29    5.77   0.000   0.200   0.000    0.00
   1.950   21.25    1.10    5.42   0.000   0.200   0.000    0.00
   2.000   21.12    0.15    4.79   0.000   0.200   0.000    0.00
   2.050   21.02   -1.78    3.16   0.000   0.200   0.000    0.00
   2.100   20.56   -1.19    3.34   0.000   0.200   0.000    0.00
   2.150   20.68    2.73    3.62   0.000   0.200   0.000    0.00
   2.200   21.01    2.06    3.49   0.000   0.200   0.000    0.00
   2.250   21.43    3.26    2.66   0.000   0.200   0.000    0.00
   2.300   21.83    3.64    2.29   0.000   0.200   0.000    0.00
   2.350   22.44    4.45    1.56   0.000   0.200   0.000    0.00
   2.400   22.16    4.35    0.49   0.000   0.200   0.000    0.00
   2.450   22.28    3.94    0.01   0.000   0.200   0.000    0.00
   2.500   22.08    3.91    0.31   0.000   0.200   0.000    0.00
   2.550   21.59    6.30   -0.51   0.000   0.200   0.000    0.00
   2.600   22.20    2.65   -0.39   0.000   0.200   0.000    0.00
   2.650   21.81    2.73    0.15   0.000   0.200   0.000    0.00
   2.700   21.78    1.14   -0.25   0.000   0.200   0.000    0.00
   2.750   21.84   -0.63   -0.39   0.000   0.200   0.000    0.00
   2.800   21.05   -2.33    0.44   0.000   0.200   0.000    0.00
   2.850   19.41    2.91    0.42   0.000   0.200   0.000    0.00
   2.900   19.71    1.37    1.73   0.000   0.200   0.000    0.00
   2.950   20.08    3.75    2.46   0.000   0.200   0.000    0.00
   3.000   20.12    6.64    2.93   0.000   0.200   0.000    0.00
   3.050   20.33    5.77    2.61   0.000   0.200   0.000    0.00
   3.100   20.50    6.40    2.22   0.000   0.200   0.000    0.00
   3.150   20.56    5.88    1.98   0.000   0.200   0.000    0.00
   3.200   20.29    5.51    1.31   0.000   0.200   0.000    0.00
   3.250   20.14    3.43    1.93   0.000   0.200   0.000    0.00
   3.300   20.39    4.32    1.83   0.000   0.200   0.000    0.00
   3.350   20.20    4.33    2.14   0.000   0.200   0.000    0.00
   3.400   19.97    1.59    3.02   0.000   0.200   0.000    0.00
   3.450   19.72    3.52    2.98   0.000   0.200   0.000    0.00
   3.500   19.96    5.65    2.81   0.000   0.200   0.000    0.00
   3.550   20.07    2.69    2.16   0.000   0.200   0.000    0.00
   3.600   19.39    2.78    3.34   0.000   0.200   0.000    0.00
   3.650   19.52    2.18    2.09   0.000   0.200   0.000    0.00
   3.700   19.07    1.99    1.43   0.000   0.200   0.000    0.00
   3.750   18.99    2.25    2.21   0.000   0.200   0.000    0.00
   3.800   19.25    2.02    1.82   0.000   0.200   0.000    0.00
   3.850   18.79    3.03    0.71   0.000   0.200   0.000    0.00
   3.900   18.44    6.00    1.06   0.000   0.200   0.000    0.00
   3.950   19.19    8.05    1.47   0.000   0.200   0.000    0.00
   4.000   19.99   12.31    0.72   0.000   0.200   0.000    0.00
   4.050   20.68   10.64    1.03   0.000   0.200   0.000    0.00
   4.100   19.85   11.49    0.73   0.000   0.200   0.000    0.00
   4.150   19.97    8.29    1.00   0.000   0.200   0.000    0.00
   4.200   21.05    9.98    0.68   0.000   0.200   0.000    0.00
   4.250   20.95   11.70    0.24   0.000   0.200   0.000    0.00
   4.300   20.72   11.37   -0.12   0.000   0.200   0.000    0.00
   4.350   21.19   13.14   -0.59   0.000   0.200   0.000    0.00
   4.400   20.81   12.38   -0.11   0.000   0.200   0.000    0.00
   4.450   21.52   10.25    0.56   0.000   0.200   0.000    0.00
   4.500   21.67   10.75    0.11   0.000   0.200   0.000    0.00
   4.550   20.63   10.34   -1.18   0.000   0.200   0.000    0.00
   4.600   19.85    9.52   -0.02   0.000   0.200   0.000    0.00
   4.650   19.89   10.48    0.17   0.000   0.200   0.000    0.00
   4.700   19.90    9.21   -0.26   0.000   0.200   0.000    0.00
   4.750   19.91    9.58   -1.12   0.000   0.200   0.000    0.00
   4.800   19.50    9.07   -1.27   0.000   0.200   0.000    0.00
   4.850   19.86    9.52   -1.00   0.000   0.200   0.000    0.00
   4.900   20.32    9.86   -1.51   0.000   0.200   0.000    0.00
   4.950   20.74    9.59   -0.65   0.000   0.200   0.000    0.00
   5.000   20.71    6.95   -0.55   0.000   0.200   0.000    0.00
   5.050   21.12    7.69   -0.73   0.000   0.200   0.000    0.00
   5.100   20.69    8.21   -0.82   0.000   0.200   0.000    0.00
   5.150   20.60    8.45   -0.99   0.000   0.200   0.000    0.00
   5.200   19.60    9.52   -0.97   0.000   0.200   0.000    0.00
   5.250   18.82    6.99   -1.84   0.000   0.200   0.000    0.00
   5.300   19.67    7.69   -1.60   0.000   0.200   0.000    0.00
   5.350   19.12    7.54   -1.69   0.000   0.200   0.000    0.00
   5.400   18.90    9.62   -2.12   0.000   0.200   0.000    0.00
   5.450   19.34   11.60   -2.51   0.000   0.200   0.000    0.00
   5.500   19.36    9.82   -2.75   0.000   0.200   0.000    0.00
   5.550   19.85   13.22   -2.29   0.000   0.200   0.000    0.00
   5.600   19.53   14.43   -1.08   0.000   0.200   0.000    0.00
   5.650   20.02   14.07   -0.40   0.000   0.200   0.000    0.00
   5.700   19.53   11.98   -0.88   0.000   0.200   0.000    0.00
   5.750   20.11   11.77   -0.89   0.000   0.200   0.000    0.00
   5.800   20.29   12.25   -1.74   0.000   0.200   0.000    0.00
   5.850   20.00   10.70   -1.25   0.000   0.200   0.000    0.00
   5.900   19.54    8.56   -1.10   0.000   0.200   0.000    0.00
   5.950   20.13    8.83   -1.81   0.000   0.200   0.000    0.00
   6.000   20.52   10.17   -2.12   0.000   0.200   0.000    0.00
   6.050   20.26   13.64   -1.63   0.000   0.200   0.000    0.00
   6.100   20.35   11.92   -1.70   0.000   0.200   0.000    0.00
   6.150   20.42    9.26   -0.17   0.000   0.200   0.000    0.00
   6.200   20.26    9.61   -0.41   0.000   0.200   0.000    0.00
   6.250   20.50    9.53   -0.14   0.000   0.200   0.000    0.00
   6.300   20.38    8.41   -0.50   0.000   0.200   0.000    0.00
   6.350   20.32    7.80   -0.38   0.000   0.200   0.000    0.00
   6.400   20.11    5.86   -0.05   0.000   0.200   0.000    0.00
   6.450   19.96    5.12    0.63   0.000   0.200   0.000    0.00
   6.500   19.57    1.66    0.33   0.000   0.200   0.000    0.00
   6.550   19.21   -1.08    0.22   0.000   0.200   0.000    0.00
   6.600   18.64   -0.88   -0.03   0.000   0.200   0.000    0.00
   6.650   19.11   -0.05    0.24   0.000   0.200   0.000    0.00
   6.700   19.26   -4.14    0.16   0.000   0.200   0.000    0.00
   6.750   19.93   -3.29   -0.25   0.000   0.200   0.000    0.00
   6.800   19.64   -1.22   -0.82   0.000   0.200   0.000    0.00
   6.850   19.42   -2.87   -0.84   0.000   0.200   0.000    0.00
   6.900   18.51    0.51   -1.35   0.000   0.200   0.000    0.00
   6.950   19.01   -0.50   -1.52   0.000   0.200   0.000    0.00
   7.000   18.56    2.00   -0.48   0.000   0.200   0.000    0.00
   7.050   18.64    0.74    0.25   0.000   0.200   0.000    0.00
   7.100   19.21   -0.36   -0.03   0.000   0.200   0.000    0.00
   7.150   18.88    0.10   -1.11   0.000   0.200   0.000    0.00
   7.200   18.80   -0.98   -0.95   0.000   0.200   0.000    0.00
   7.250   19.04   -0.40   -0.26   0.000   0.200   0.000    0.00
   7.300   19.10   -0.08   -0.46   0.000   0.200   0.000    0.00
   7.350   18.32    0.37   -0.15   0.000   0.200   0.000    0.00
   7.400   18.64   -0.25   -0.10   0.000   0.200   0.000    0.00
   7.450   19.12   -0.56    0.13   0.000   0.200   0.000    0.00
   7.500   19.13    1.73    0.56   0.000   0.200   0.000    0.00
   7.550   18.97    3.53    0.25   0.000   0.200   0.000    0.00
   7.600   18.07    5.88    0.50   0.000   0.200   0.000    0.00
   7.650   17.93    4.78    1.51   0.000   0.200   0.000    0.00
   7.700   17.66    3.26    2.18   0.000   0.200   0.000    0.00
   7.750   18.04    1.67    2.44   0.000   0.200   0.000    0.00
   7.800   17.93    1.24    2.67   0.000   0.200   0.000    0.00
   7.850   17.06    4.25    1.47   0.000   0.200   0.000    0.00
   7.900   16.03    4.29    2.20   0.000   0.200   0.000    0.00
   7.950   16.65   -0.06    2.24   0.000   0.200   0.000    0.00
   8.000   16.85   -1.65    1.86   0.000   0.200   0.000    0.00
   8.050   17.09   -2.47    2.37   0.000   0.200   0.000    0.00
   8.100   17.05   -1.17    2.69   0.000   0.200   0.000    0.00
   8.150   16.30   -2.78    2.63   0.000   0.200   0.000    0.00
   8.200   17.07   -4.50    3.28   0.000   0.200   0.000    0.00
   8.250   16.50   -6.97    2.92   0.000   0.200   0.000    0.00
   8.300   16.24   -4.99    3.59   0.000   0.200   0.000    0.00
   8.350   15.83   -7.40    3.12   0.000   0.200   0.000    0.00
   8.400   15.56   -5.61    2.40   0.000   0.200   0.000    0.00
   8.450   16.97   -2.72    3.44   0.000   0.200   0.000    0.00
   8.500   17.87   -4.20    3.64   0.000   0.200   0.000    0.00
   8.550   17.40   -2.52    4.58   0.000   0.200   0.000    0.00
   8.600   16.54   -0.33    5.12   0.000   0.200   0.000    0.00
   8.650   17.43    1.59    5.20   0.000   0.200   0.000    0.00
   8.700   18.05    0.79    4.52   0.000   0.200   0.000    0.00
   8.750   18.07    1.84    3.38   0.000   0.200   0.000    0.00
   8.800   18.45    0.97    4.03   0.000   0.200   0.000    0.00
   8.850   18.92    4.74    3.01   0.000   0.200   0.000    0.00
   8.900   18.98    3.90    3.26   0.000   0.200   0.000    0.00
   8.950   18.83    3.07    3.47   0.000   0.200   0.000    0.00
   9.000   18.17    5.59    3.62   0.000   0.200   0.000    0.00
   9.050   18.12    5.66    3.87   0.000   0.200   0.000    0.00
   9.100   18.67    7.23    4.67   0.000   0.200   0.000    0.00
   9.150   17.55    7.72    4.57   0.000   0.200   0.000    0.00
   9.200   17.38    9.33    4.02   0.000   0.200   0.000    0.00
   9.250   17.79    7.45    3.56   0.000   0.200   0.000    0.00
   9.300   17.66    8.65    3.64   0.000   0.200   0.000    0.00
   9.350   17.39    5.96    3.60   0.000   0.200   0.000    0.00
   9.400   16.98    3.14    4.10   0.000   0.200   0.000    0.00
   9.450   16.42    4.84    3.88   0.000   0.200   0.000    0.00
   9.500   17.31    6.78    4.02   0.000   0.200   0.000    0.00
   9.550   16.45   11.01    3.66   0.000   0.200   0.000    0.00
   9.600   16.25   10.32    3.29   0.000   0.200   0.000    0.00
   9.650   16.19   11.94    3.10   0.000   0.200   0.000    0.00
   9.700   15.76   10.11    3.90   0.000   0.200   0.000    0.00
   9.750   16.36   10.25    3.66   0.000   0.200   0.000    0.00
   9.800   17.11    7.88    3.09   0.000   0.200   0.000    0.00
   9.850   17.02    4.18    2.41   0.000   0.200   0.000    0.00
   9.900   17.26    2.00    1.93   0.000   0.200   0.000    0.00
   9.950   17.68    0.29    1.80   0.000   0.200   0.000    0.00
  10.000   17.27   -0.73    2.33   0.000   0.200   0.000    0.00
  10.050   17.49   -0.77    2.01   0.000   0.200   0.000    0.00
  10.100   18.05    0.83    2.16   0.000   0.200   0.000    0.00
  10.150   17.57    2.48    2.22   0.000   0.200   0.000    0.00
  10.200   17.74    2.70    2.73   0.000   0.200   0.000    0.00
  10.250   17.85    3.75    2.77   0.000   0.200   0.000    0.00
  10.300   18.28    4.17    2.58   0.000   0.200   0.000    0.00
  10.350   17.94    6.38    1.87   0.000   0.200   0.000    0.00
  10.400   18.31    6.34    1.82   0.000   0.200   0.000    0.00
  10.450   17.58    4.83    2.62   0.000   0.200   0.000    0.00
  10.500   16.44    4.69    1.94   0.000   0.200   0.000    0.00
  10.550   15.97    5.76    2.28   0.000   0.200   0.000    0.00
  10.600   15.38    7.52    2.57   0.000   0.200   0.000    0.00
  10.650   16.01    8.96    3.84   0.000   0.200   0.000    0.00
  10.700   16.21   10.51    3.92   0.000   0.200   0.000    0.00
  10.750   16.61   11.07    3.76   0.000   0.200   0.000    0.00
  10.800   17.45   10.42    3.81   0.000   0.200   0.000    0.00
  10.850   17.96   14.02    3.72   0.000   0.200   0.000    0.00
  10.900   16.62   12.63    3.30   0.000   0.200   0.000    0.00
  10.950   16.16   12.77    2.82   0.000   0.200   0.000    0.00
  11.000   16.54   10.43    3.42   0.000   0.200   0.000    0.00
  11.050   15.90   11.81    4.49   0.000   0.200   0.000    0.00
  11.100   16.19   13.77    4.06   0.000   0.200   0.000    0.00
  11.150   16.22   13.82    4.85   0.000   0.200   0.000    0.00
  11.200   16.25   12.46    5.01   0.000   0.200   0.000    0.00
  11.250   15.83   10.43    4.57   0.000   0.200   0.000    0.00
  11.300   15.99    9.00    6.09   0.000   0.200   0.000    0.00
  11.350   16.03    9.68    5.04   0.000   0.200   0.000    0.00
  11.400   16.64    8.84    4.48   0.000   0.200   0.000    0.00
  11.450   16.83    7.00    5.03   0.000   0.200   0.000    0.00
  11.500   16.57    8.69    5.54   0.000   0.200   0.000    0.00
  11.550   16.28    9.14    4.61   0.000   0.200   0.000    0.00
  11.600   16.11   10.09    5.30   0.000   0.200   0.000    0.00
  11.650   16.21   11.11    6.81   0.000   0.200   0.000    0.00
  11.700   16.43   11.55    5.71   0.000   0.200   0.000    0.00
  11.750   16.04    9.48    6.06   0.000   0.200   0.000    0.00
  11.800   15.91    7.01    6.06   0.000   0.200   0.000    0.00
  11.850   17.33    9.32    5.36   0.000   0.200   0.000    0.00
  11.900   17.03    8.09    5.82   0.000   0.200   0.000    0.00
  11.950   17.40    5.78    5.40   0.000   0.200   0.000    0.00
  12.000   17.93    5.25    5.27   0.000   0.200   0.000    0.00
  12.050   17.82    6.53    5.43   0.000   0.200   0.000    0.00
  12.100   17.43   10.26    5.62   0.000   0.200   0.000    0.00
  12.150   17.00    8.94    5.51   0.000   0.200   0.000    0.00
  12.200   17.51    8.04    5.27   0.000   0.200   0.000    0.00
  12.250   16.76    8.63    3.71   0.000   0.200   0.000    0.00
  12.300   17.83    8.98    3.65   0.000   0.200   0.000    0.00
  12.350   17.44    7.71    3.76   0.000   0.200   0.000    0.00
  12.400   18.22    9.76    3.76   0.000   0.200   0.000    0.00
  12.450   18.14    7.82    4.13   0.000   0.200   0.000    0.00
  12.500   18.45    7.20    4.57   0.000   0.200   0.000    0.00
  12.550   18.16    8.33    4.56   0.000   0.200   0.000    0.00
  12.600   18.24    9.78    4.86   0.000   0.200   0.000    0.00
  12.650   17.86   11.25    5.45   0.000   0.200   0.000    0.00
  12.700   17.99    9.10    6.82   0.000   0.200   0.000    0.00
  12.750   18.01   10.34    5.89   0.000   0.200   0.000    0.00
  12.800   17.29   10.50    6.20   0.000   0.200   0.000    0.00
  12.850   17.57    9.49    5.95   0.000   0.200   0.000    0.00
  12.900   16.74    9.19    6.72   0.000   0.200   0.000    0.00
  12.950   17.01   11.22    5.91   0.000   0.200   0.000    0.00
  13.000   16.74   10.62    6.22   0.000   0.200   0.000    0.00
  13.050   16.92    9.48    5.69   0.000   0.200   0.000    0.00
  13.100   17.42   12.55    5.64   0.000   0.200   0.000    0.00
  13.150   17.95   13.03    6.92   0.000   0.200   0.000    0.00
  13.200   18.67   15.29    5.88   0.000   0.200   0.000    0.00
  13.250   19.14   16.03    4.71   0.000   0.200   0.000    0.00
  13.300   19.41   16.31    4.84   0.000   0.200   0.000    0.00
  13.350   18.16   15.08    5.41   0.000   0.200   0.000    0.00
  13.400   17.57   12.83    5.47   0.000   0.200   0.000    0.00
  13.450   17.75   10.15    5.93   0.000   0.200   0.000    0.00
  13.500   17.32   12.48    6.78   0.000   0.200   0.000    0.00
  13.550   17.11   11.50    6.82   0.000   0.200   0.000    0.00
  13.600   17.20   11.09    5.87   0.000   0.200   0.000    0.00
  13.650   17.42   10.66    5.70   0.000   0.200   0.000    0.00
  13.700   17.53   11.15    4.65   0.000   0.200   0.000    0.00
  13.750   17.16   10.15    4.91   0.000   0.200   0.000    0.00
  13.800   18.17   12.59    4.77   0.000   0.200   0.000    0.00
  13.850   18.39   15.13    5.31   0.000   0.200   0.000    0.00
  13.900   18.21   12.26    5.25   0.000   0.200   0.000    0.00
  13.950   18.33    8.09    5.50   0.000   0.200   0.000    0.00
  14.000   18.34   11.96    5.69   0.000   0.200   0.000    0.00
  14.050   19.83   17.01    6.10   0.000   0.200   0.000    0.00
  14.100   19.26   16.22    5.01   0.000   0.200   0.000    0.00
  14.150   18.93   15.28    5.19   0.000   0.200   0.000    0.00
  14.200   18.82   14.64    5.42   0.000   0.200   0.000    0.00
  14.250   19.22   15.29    5.37   0.000   0.200   0.000    0.00
  14.300   19.23   13.20    4.96   0.000   0.200   0.000    0.00
  14.350   19.02   10.64    4.40   0.000   0.200   0.000    0.00
  14.400   18.73   11.52    3.40   0.000   0.200   0.000    0.00
  14.450   19.12   10.70    3.07   0.000   0.200   0.000    0.00
  14.500   18.68   11.18    3.78   0.000   0.200   0.000    0.00
  14.550   18.19    8.87    2.47   0.000   0.200   0.000    0.00
  14.600   18.57   11.38    1.33   0.000   0.200   0.000    0.00
  14.650   18.38   12.89    1.59   0.000   0.200   0.000    0.00
  14.700   18.82    8.62    1.78   0.000   0.200   0.000    0.00
  14.750   19.05    6.71    0.88   0.000   0.200   0.000    0.00
  14.800   19.51    8.94    1.53   0.000   0.200   0.000    0.00
  14.850   20.00    9.16    2.59   0.000   0.200   0.000    0.00
  14.900   19.06    9.85    2.65   0.000   0.200   0.000    0.00
  14.950   19.17    8.18    3.00   0.000   0.200   0.000    0.00
  15.000   18.83    5.65    2.96   0.000   0.200   0.000    0.00
  15.050   18.90    3.86    2.11   0.000   0.200   0.000    0.00
  15.100   18.31    3.77    2.05   0.000   0.200   0.000    0.00
  15.150   18.99    7.49    1.52   0.000   0.200   0.000    0.00
  15.200   18.89    6.36    1.20   0.000   0.200   0.000    0.00
  15.250   19.17    5.81    1.21   0.000   0.200   0.000    0.00
  15.300   19.83    3.47    0.74   0.000   0.200   0.000    0.00
  15.350   20.17    1.77    1.86   0.000   0.200   0.000    0.00
  15.400   19.93    1.21    2.54   0.000   0.200   0.000    0.00
  15.450   19.64   -0.03    3.04   0.000   0.200   0.000    0.00
  15.500   18.83   -3.84    2.62   0.000   0.200   0.000    0.00
  15.550   18.84   -6.63    2.06   0.000   0.200   0.000    0.00
  15.600   18.50   -5.82    2.51   0.000   0.200   0.000    0.00
  15.650   17.18   -7.56    2.85   0.000   0.200   0.000    0.00
  15.700   17.56   -7.11    2.38   0.000   0.200   0.000    0.00
  15.750   17.94   -5.94    1.63   0.000   0.200   0.000    0.00
  15.800   17.08  -10.86    1.14   0.000   0.200   0.000    0.00
  15.850   16.79  -11.03    1.52   0.000   0.200   0.000    0.00
  15.900   16.60   -6.97    1.71   0.000   0.200   0.000    0.00
  15.950   16.42   -2.74    1.24   0.000   0.200   0.000    0.00
  16.000   16.26   -3.79    0.66   0.000   0.200   0.000    0.00
  16.050   16.17   -3.22    1.79   0.000   0.200   0.000    0.00
  16.100   16.53   -4.31    1.34   0.000   0.200   0.000    0.00
  16.150   17.46   -2.02    1.46   0.000   0.200   0.000    0.00
  16.200   17.79   -2.14    1.69   0.000   0.200   0.000    0.00
  16.250   18.34   -3.51    2.36   0.000   0.200   0.000    0.00
  16.300   18.03    1.40    2.15   0.000   0.200   0.000    0.00
  16.350   18.51    0.94    1.88   0.000   0.200   0.000    0.00
  16.400   19.45   -2.54    1.92   0.000   0.200   0.000    0.00
  16.450   20.11   -2.79    2.38   0.000   0.200   0.000    0.00
  16.500   20.41   -1.92    1.93   0.000   0.200   0.000    0.00
  16.550   18.87   -1.53    1.99   0.000   0.200   0.000    0.00
  16.600   18.90   -2.91    2.32   0.000   0.200   0.000    0.00
  16.650   19.27   -1.66    0.41   0.000   0.200   0.000    0.00
  16.700   19.38   -2.69    0.00   0.000   0.200   0.000    0.00
  16.750   20.22   -0.50   -0.65   0.000   0.200   0.000    0.00
  16.800   20.86    1.84   -0.72   0.000   0.200   0.000    0.00
  16.850   20.39    2.35   -0.33   0.000   0.200   0.000    0.00
  16.900   20.38    3.89   -1.56   0.000   0.200   0.000    0.00
  16.950   19.80    4.18   -0.99   0.000   0.200   0.000    0.00
  17.000   20.10    2.40   -1.28   0.000   0.200   0.000    0.00
  17.050   20.55    2.28   -0.80   0.000   0.200   0.000    0.00
  17.100   19.98    5.55    0.78   0.000   0.200   0.000    0.00
  17.150   20.30    3.64    0.24   0.000   0.200   0.000    0.00
  17.200   20.14    6.04   -0.84   0.000   0.200   0.000    0.00
  17.250   20.32    7.11   -1.54   0.000   0.200   0.000    0.00
  17.300   20.62    6.79   -0.93   0.000   0.200   0.000    0.00
  17.350   20.88    6.50   -0.32   0.000   0.200   0.000    0.00
  17.400   20.34    9.34   -0.47   0.000   0.200   0.000    0.00
  17.450   20.07   10.69   -1.84   0.000   0.200   0.000    0.00
  17.500   20.70   12.20   -1.33   0.000   0.200   0.000    0.00
  17.550   20.98   12.26   -0.79   0.000   0.200   0.000    0.00
  17.600   21.07   13.17   -0.73   0.000   0.200   0.000    0.00
  17.650   21.02   12.06   -0.23   0.000   0.200   0.000    0.00
  17.700   20.12   11.11   -0.86   0.000   0.200   0.000    0.00
  17.750   20.69    8.74   -1.36   0.000   0.200   0.000    0.00
  17.800   21.29    6.93   -1.94   0.000   0.200   0.000    0.00
  17.850   20.44    3.67   -2.07   0.000   0.200   0.000    0.00
  17.900   20.34    1.48   -1.60   0.000   0.200   0.000    0.00
  17.950   19.78   -1.27   -1.96   0.000   0.200   0.000    0.00
  18.000   19.17   -0.29   -1.39   0.000   0.200   0.000    0.00
  18.050   19.55   -1.05   -1.94   0.000   0.200   0.000    0.00
  18.100   20.89   -0.72   -2.71   0.000   0.200   0.000    0.00
  18.150   20.70   -0.75   -2.17   0.000   0.200   0.000    0.00
  18.200   20.83   -2.81   -1.75   0.000   0.200   0.000    0.00
  18.250   20.55   -1.70   -1.75   0.000   0.200   0.000    0.00
  18.300   20.78    0.69   -2.46   0.000   0.200   0.000    0.00
  18.350   20.96   -1.63   -2.13   0.000   0.200   0.000    0.00
  18.400   21.19   -2.87   -2.34   0.000   0.200   0.000    0.00
  18.450   20.84   -4.44   -2.81   0.000   0.200   0.000    0.00
  18.500   20.85   -0.69   -3.10   0.000   0.200   0.000    0.00
  18.550   21.65   -0.56   -4.00   0.000   0.200   0.000    0.00
  18.600   21.71    1.11   -3.31   0.000   0.200   0.000    0.00
  18.650   21.27    4.31   -3.33   0.000   0.200   0.000    0.00
  18.700   22.06    5.40   -3.35   0.000   0.200   0.000    0.00
  18.750   21.88    8.35   -5.25   0.000   0.200   0.000    0.00
  18.800   21.39    7.23   -5.42   0.000   0.200   0.000    0.00
  18.850   20.75    6.59   -4.81   0.000   0.200   0.000    0.00
  18.900   21.16    5.18   -2.66   0.000   0.200   0.000    0.00
  18.950   21.27    3.11   -3.03   0.000   0.200   0.000    0.00
  19.000   21.28    4.60   -3.11   0.000   0.200   0.000    0.00
  19.050   22.10    5.06   -3.30   0.000   0.200   0.000    0.00
  19.100   22.53    3.77   -3.63   0.000   0.200   0.000    0.00
  19.150   21.77    3.72   -3.73   0.000   0.200   0.000    0.00
  19.200   22.72    4.70   -3.65   0.000   0.200   0.000    0.00
  19.250   22.75    4.13   -4.39   0.000   0.200   0.000    0.00
  19.300   22.80    2.85   -3.22   0.000   0.200   0.000    0.00
  19.350   22.09    2.84   -2.04   0.000   0.200   0.000    0.00
  19.400   21.76    2.09   -2.13   0.000   0.200   0.000    0.00
  19.450   21.54    1.61   -1.69   0.000   0.200   0.000    0.00
  19.500   22.65    0.52   -1.80   0.000   0.200   0.000    0.00
  19.550   22.55    1.91   -2.05   0.000   0.200   0.000    0.00
  19.600   21.93    4.09   -2.54   0.000   0.200   0.000    0.00
  19.650   22.43    0.58   -2.56   0.000   0.200   0.000    0.00
  19.700   22.88    1.56   -3.52   0.000   0.200   0.000    0.00
  19.750   22.54   -1.70   -3.00   0.000   0.200   0.000    0.00
  19.800   22.79   -1.84   -3.66   0.000   0.200   0.000    0.00
  19.850   22.43   -2.71   -3.62   0.000   0.200   0.000    0.00
  19.900   22.40   -5.57   -3.67   0.000   0.200   0.000    0.00
  19.950   22.56   -4.88   -3.03   0.000   0.200   0.000    0.00
  20.000   21.72   -4.35   -2.75   0.000   0.200   0.000    0.00
  20.050   23.18   -1.79   -3.19   0.000   0.200   0.000    0.00
  20.100   23.42   -1.36   -2.40   0.000   0.200   0.000    0.00
  20.150   22.67   -1.51   -1.65   0.000   0.200   0.000    0.00
  20.200   23.41   -1.54   -0.97   0.000   0.200   0.000    0.00
  20.250   22.86   -3.18   -0.68   0.000   0.200   0.000    0.00
  20.300   22.49   -2.03    0.08   0.000   0.200   0.000    0.00
  20.350   21.72   -4.03    0.33   0.000   0.200   0.000    0.00
  20.400   22.65   -5.76    0.23   0.000   0.200   0.000    0.00
  20.450   22.96   -3.56   -0.37   0.000   0.200   0.000    0.00
  20.500   23.12   -4.03   -1.25   0.000   0.200   0.000    0.00
  20.550   22.52   -5.72   -1.15   0.000   0.200   0.000    0.00
  20.600   22.33   -4.57   -0.69   0.000   0.200   0.000    0.00
  20.650   22.00   -6.01   -1.42   0.000   0.200   0.000    0.00
  20.700   21.93   -2.46   -1.69   0.000   0.200   0.000    0.00
  20.750   21.56   -3.76   -2.47   0.000   0.200   0.000    0.00
  20.800   21.80   -4.69   -2.47   0.000   0.200   0.000    0.00
  20.850   22.21   -1.80   -1.74   0.000   0.200   0.000    0.00
  20.900   21.39   -4.07   -1.62   0.000   0.200   0.000    0.00
  20.950   20.96   -4.29   -1.04   0.000   0.200   0.000    0.00
  21.000   20.68   -7.93   -1.87   0.000   0.200   0.000    0.00
  21.050   20.86   -5.71   -1.48   0.000   0.200   0.000    0.00
  21.100   20.88   -6.17   -1.50   0.000   0.200   0.000    0.00
  21.150   20.57   -5.90   -2.14   0.000   0.200   0.000    0.00
  21.200   20.88   -4.96   -1.60   0.000   0.200   0.000    0.00
  21.250   21.36   -6.49   -1.31   0.000   0.200   0.000    0.00
  21.300   20.45   -3.92   -1.55   0.000   0.200   0.000    0.00
  21.350   21.64   -4.05   -0.67   0.000   0.200   0.000    0.00
  21.400   22.38   -5.48   -0.63   0.000   0.200   0.000    0.00
  21.450   22.24   -5.30   -1.83   0.000   0.200   0.000    0.00
  21.500   21.84   -7.19   -1.55   0.000   0.200   0.000    0.00
  21.550   21.32   -6.07   -1.05   0.000   0.200   0.000    0.00
  21.600   21.09   -3.94   -1.29   0.000   0.200   0.000    0.00
  21.650   21.13   -3.94   -1.08   0.000   0.200   0.000    0.00
  21.700   20.08   -6.24   -0.79   0.000   0.200   0.000    0.00
  21.750   20.90   -4.79   -0.45   0.000   0.200   0.000    0.00
  21.800   21.02   -4.23   -0.01   0.000   0.200   0.000    0.00
  21.850   21.18   -5.06   -1.03   0.000   0.200   0.000    0.00
  21.900   21.52   -4.10   -0.65   0.000   0.200   0.000    0.00
  21.950   21.84   -5.23    0.30   0.000   0.200   0.000    0.00
  22.000   21.35   -6.06    0.77   0.000   0.200   0.000    0.00
  22.050   21.05   -4.85    0.71   0.000   0.200   0.000    0.00
  22.100   22.16   -1.73    1.12   0.000   0.200   0.000    0.00
  22.150   22.36   -5.48    0.47   0.000   0.200   0.000    0.00
  22.200   22.73   -8.19    0.20   0.000   0.200   0.000    0.00
  22.250   23.06   -9.93   -0.89   0.000   0.200   0.000    0.00
  22.300   23.18   -7.66   -0.32   0.000   0.200   0.000    0.00
  22.350   23.89   -7.49   -1.05   0.000   0.200   0.000    0.00
  22.400   23.84   -6.98   -1.04   0.000   0.200   0.000    0.00
  22.450   24.01   -6.41   -1.03   0.000   0.200   0.000    0.00
  22.500   23.40   -6.24   -0.68   0.000   0.200   0.000    0.00
  22.550   23.30   -5.28    0.08   0.000   0.200   0.000    0.00
  22.600   23.81   -5.81    1.02   0.000   0.200   0.000    0.00
  22.650   23.17   -5.61    0.31   0.000   0.200   0.000    0.00
  22.700   22.41   -5.19   -1.18   0.000   0.200   0.000    0.00