! This hub-height wind-speed file was generated by TurbSim (from OpenFAST--128-NOTFOUND) on 23-Aug-2023 at 09:41:12.
!
! The requested statistics for this data were:
!    Mean Total Wind Speed =   20.000 m/s
!    Turbulence Intensity  =   14.420%
!
!   Time  HorSpd  WndDir  VerSpd  HorShr  VerShr  LnVShr  GstSpd
!  (sec)   (m/s)   (deg)   (m/s)     (-)     (-)     (-)   (m/s)
   0.000   16.80   -6.68   -0.50   0.000   0.200   0.000    0.00
   0.010   16.56   -8.30   -0.39   0.000   0.200   0.000    0.00
   0.020   16.56   -7.99    0.24   0.000   0.200   0.000    0.00
   0.030   16.71   -7.91   -0.35   0.000   0.200   0.000    0.00
   0.040   16.57   -7.87   -0.15   0.000   0.200   0.000    0.00
   0.050   16.46  -10.02   -0.53   0.000   0.200   0.000    0.00
   0.060   16.56   -8.15   -0.44   0.000   0.200   0.000    0.00
   0.070   16.94   -7.22   -0.24   0.000   0.200   0.000    0.00
   0.080   16.62   -7.61    0.35   0.000   0.200   0.000    0.00
   0.090   16.23   -7.02   -0.00   0.000   0.200   0.000    0.00
   0.100   16.50   -8.21   -0.56   0.000   0.200   0.000    0.00
   0.110   16.28   -9.56   -0.12   0.000   0.200   0.000    0.00
   0.120   16.79   -9.46   -0.23   0.000   0.200   0.000    0.00
   0.130   16.80   -8.91    0.29   0.000   0.200   0.000    0.00
   0.140   16.96   -7.53    0.69   0.000   0.200   0.000    0.00
   0.150   16.91  -10.60    0.50   0.000   0.200   0.000    0.00
   0.160   17.26  -11.66    0.68   0.000   0.200   0.000    0.00
   0.170   17.33  -11.79    0.46   0.000   0.200   0.000    0.00
   0.180   17.53  -11.64    0.08   0.000   0.200   0.000    0.00
   0.190   17.90  -11.27    0.01   0.000   0.200   0.000    0.00
   0.200   17.90  -11.92    0.28   0.000   0.200   0.000    0.00
   0.210   17.99  -10.95    0.50   0.000   0.200   0.000    0.00
   0.220   17.93   -9.53    0.27   0.000   0.200   0.000    0.00
   0.230   17.37   -7.15    0.62   0.000   0.200   0.000    0.00
   0.240   16.74   -5.33    0.53   0.000   0.200   0.000    0.00
   0.250   16.77   -5.60    1.36   0.000   0.200   0.000    0.00
   0.260   16.70   -6.60    1.41   0.000   0.200   0.000    0.00
   0.270   16.97   -8.79    1.43   0.000   0.200   0.000    0.00
   0.280   17.18   -8.63    1.19   0.000   0.200   0.000    0.00
   0.290   17.46   -7.53    0.85   0.000   0.200   0.000    0.00
   0.300   17.48   -8.54    1.00   0.000   0.200   0.000    0.00
   0.310   17.43   -6.65    0.64   0.000   0.200   0.000    0.00
   0.320   17.24   -5.95    0.53   0.000   0.200   0.000    0.00
   0.330   17.16   -6.05    0.69   0.000   0.200   0.000    0.00
   0.340   17.26   -7.18    0.79   0.000   0.200   0.000    0.00
   0.350   16.82   -8.28    1.00   0.000   0.200   0.000    0.00
   0.360   16.56   -7.17    0.72   0.000   0.200   0.000    0.00
   0.370   17.11   -7.75    0.69   0.000   0.200   0.000    0.00
   0.380   16.67   -9.02    1.14   0.000   0.200   0.000    0.00
   0.390   16.51   -8.96    1.28   0.000   0.200   0.000    0.00
   0.400   16.85   -7.43    1.52   0.000   0.200   0.000    0.00
   0.410   16.92   -7.86    1.74   0.000   0.200   0.000    0.00
   0.420   17.27   -8.31    1.26   0.000   0.200   0.000    0.00
   0.430   16.72   -8.86    1.13   0.000   0.200   0.000    0.00
   0.440   16.28   -7.59    0.73   0.000   0.200   0.000    0.00
   0.450   16.52   -5.86    0.65   0.000   0.200   0.000    0.00
   0.460   16.47   -6.12    1.50   0.000   0.200   0.000    0.00
   0.470   16.44   -6.35    1.53   0.000   0.200   0.000    0.00
   0.480   16.10   -7.30    1.16   0.000   0.200   0.000    0.00
   0.490   16.09   -5.28    0.72   0.000   0.200   0.000    0.00
   0.500   16.07   -5.32    0.66   0.000   0.200   0.000    0.00
   0.510   15.80   -6.25    0.54   0.000   0.200   0.000    0.00
   0.520   15.50   -6.64    0.93   0.000   0.200   0.000    0.00
   0.530   15.18   -7.60    0.54   0.000   0.200   0.000    0.00
   0.540   15.51   -6.93    1.00   0.000   0.200   0.000    0.00
   0.550   15.59   -5.95    0.90   0.000   0.200   0.000    0.00
   0.560   15.50   -4.17    0.56   0.000   0.200   0.000    0.00
   0.570   15.63   -3.83   -0.38   0.000   0.200   0.000    0.00
   0.580   15.35   -4.67   -0.07   0.000   0.200   0.000    0.00
   0.590   15.22   -3.56   -0.15   0.000   0.200   0.000    0.00
   0.600   15.66   -2.23    0.01   0.000   0.200   0.000    0.00
   0.610   15.19   -2.43   -0.08   0.000   0.200   0.000    0.00
   0.620   15.87   -3.09    0.04   0.000   0.200   0.000    0.00
   0.630   15.96   -2.85    0.65   0.000   0.200   0.000    0.00
   0.640   15.61   -3.09    0.63   0.000   0.200   0.000    0.00
   0.650   15.04   -3.14    1.16   0.000   0.200   0.000    0.00
   0.660   14.76    0.24    0.92   0.000   0.200   0.000    0.00
   0.670   14.76    1.53    1.05   0.000   0.200   0.000    0.00
   0.680   15.09   -1.00    0.91   0.000   0.200   0.000    0.00
   0.690   15.14   -3.92    0.67   0.000   0.200   0.000    0.00
   0.700   14.54   -1.94    0.95   0.000   0.200   0.000    0.00
   0.710   14.78   -2.06    1.01   0.000   0.200   0.000    0.00
   0.720   16.10   -2.24    0.89   0.000   0.200   0.000    0.00
   0.730   16.43   -3.25    0.96   0.000   0.200   0.000    0.00
   0.740   15.55   -2.17    1.24   0.000   0.200   0.000    0.00
   0.750   15.49   -2.52    1.58   0.000   0.200   0.000    0.00
   0.760   15.69   -2.23    1.35   0.000   0.200   0.000    0.00
   0.770   15.38   -2.69    1.19   0.000   0.200   0.000    0.00
   0.780   15.64   -3.43    0.98   0.000   0.200   0.000    0.00
   0.790   15.08   -0.85    0.48   0.000   0.200   0.000    0.00
   0.800   15.48   -0.89    0.22   0.000   0.200   0.000    0.00
   0.810   15.45    0.01    0.25   0.000   0.200   0.000    0.00
   0.820   15.79   -0.79    0.04   0.000   0.200   0.000    0.00
   0.830   16.18   -2.46   -0.18   0.000   0.200   0.000    0.00
   0.840   16.70   -1.90    0.53   0.000   0.200   0.000    0.00
   0.850   17.02   -2.38    0.88   0.000   0.200   0.000    0.00
   0.860   17.01   -1.60    1.37   0.000   0.200   0.000    0.00
   0.870   16.56   -1.67    1.13   0.000   0.200   0.000    0.00
   0.880   16.63   -0.48    1.33   0.000   0.200   0.000    0.00
   0.890   16.21   -0.73    1.42   0.000   0.200   0.000    0.00
   0.900   16.12   -0.10    1.36   0.000   0.200   0.000    0.00
   0.910   16.18    0.40    1.87   0.000   0.200   0.000    0.00
   0.920   15.94    0.01    2.27   0.000   0.200   0.000    0.00
   0.930   15.85    0.32    2.21   0.000   0.200   0.000    0.00
   0.940   15.74    0.42    2.04   0.000   0.200   0.000    0.00
   0.950   15.84    0.60    2.16   0.000   0.200   0.000    0.00
   0.960   15.70    0.59    2.56   0.000   0.200   0.000    0.00
   0.970   15.79    2.12    2.34   0.000   0.200   0.000    0.00
   0.980   16.51    2.53    2.33   0.000   0.200   0.000    0.00
   0.990   16.30    0.89    2.50   0.000   0.200   0.000    0.00
   1.000   15.95    2.23    2.58   0.000   0.200   0.000    0.00
   1.010   16.25    2.42    2.96   0.000   0.200   0.000    0.00
   1.020   16.12    2.73    2.81   0.000   0.200   0.000    0.00
   1.030   16.23    1.47    2.67   0.000   0.200   0.000    0.00
   1.040   16.42    1.98    2.57   0.000   0.200   0.000    0.00
   1.050   16.23    3.24    1.85   0.000   0.200   0.000    0.00
   1.060   16.66    4.70    1.93   0.000   0.200   0.000    0.00
   1.070   16.67    5.87    2.08   0.000   0.200   0.000    0.00
   1.080   16.63    6.14    1.86   0.000   0.200   0.000    0.00
   1.090   16.74    7.45    2.75   0.000   0.200   0.000    0.00
   1.100   16.97    6.92    3.09   0.000   0.200   0.000    0.00
   1.110   16.90    4.03    3.06   0.000   0.200   0.000    0.00
   1.120   17.17    2.58    2.43   0.000   0.200   0.000    0.00
   1.130   17.31    3.39    2.36   0.000   0.200   0.000    0.00
   1.140   16.97    2.81    2.73   0.000   0.200   0.000    0.00
   1.150   17.04    4.13    2.74   0.000   0.200   0.000    0.00
   1.160   16.69    4.38    3.13   0.000   0.200   0.000    0.00
   1.170   17.07    5.16    3.12   0.000   0.200   0.000    0.00
   1.180   17.45    5.90    3.02   0.000   0.200   0.000    0.00
   1.190   17.30    4.72    2.75   0.000   0.200   0.000    0.00
   1.200   17.66    4.71    2.57   0.000   0.200   0.000    0.00
   1.210   18.22    3.68    2.57   0.000   0.200   0.000    0.00
   1.220   18.22    1.84    2.35   0.000   0.200   0.000    0.00
   1.230   17.75    2.49    3.16   0.000   0.200   0.000    0.00
   1.240   17.31    0.40    3.85   0.000   0.200   0.000    0.00
   1.250   16.82   -0.32    3.99   0.000   0.200   0.000    0.00
   1.260   16.83   -0.60    3.49   0.000   0.200   0.000    0.00
   1.270   16.62   -0.32    3.58   0.000   0.200   0.000    0.00
   1.280   16.47   -0.39    3.82   0.000   0.200   0.000    0.00
   1.290   16.75   -0.31    3.63   0.000   0.200   0.000    0.00
   1.300   16.67    0.31    3.19   0.000   0.200   0.000    0.00
   1.310   16.44   -1.66    2.69   0.000   0.200   0.000    0.00
   1.320   16.67    0.30    2.50   0.000   0.200   0.000    0.00
   1.330   16.87   -1.06    2.86   0.000   0.200   0.000    0.00
   1.340   17.00   -1.95    2.60   0.000   0.200   0.000    0.00
   1.350   17.07   -2.86    2.49   0.000   0.200   0.000    0.00
   1.360   17.50   -2.67    2.64   0.000   0.200   0.000    0.00
   1.370   17.47   -2.94    2.43   0.000   0.200   0.000    0.00
   1.380   17.60   -2.49    2.77   0.000   0.200   0.000    0.00
   1.390   17.49   -0.61    2.17   0.000   0.200   0.000    0.00
   1.400   17.55   -0.84    1.90   0.000   0.200   0.000    0.00
   1.410   17.13   -0.49    2.51   0.000   0.200   0.000    0.00
   1.420   17.60   -0.56    2.24   0.000   0.200   0.000    0.00
   1.430   18.11   -0.47    2.28   0.000   0.200   0.000    0.00
   1.440   17.95   -3.23    1.96   0.000   0.200   0.000    0.00
   1.450   17.47   -5.27    2.12   0.000   0.200   0.000    0.00
   1.460   17.73   -7.26    2.01   0.000   0.200   0.000    0.00
   1.470   17.68   -7.26    2.19   0.000   0.200   0.000    0.00
   1.480   17.57   -6.92    2.12   0.000   0.200   0.000    0.00
   1.490   17.34   -6.52    2.38   0.000   0.200   0.000    0.00
   1.500   16.82   -5.73    2.43   0.000   0.200   0.000    0.00
   1.510   17.00   -3.77    2.85   0.000   0.200   0.000    0.00
   1.520   17.19   -2.35    3.34   0.000   0.200   0.000    0.00
   1.530   17.51   -0.74    3.88   0.000   0.200   0.000    0.00
   1.540   16.90   -1.92    4.26   0.000   0.200   0.000    0.00
   1.550   17.16   -2.87    4.21   0.000   0.200   0.000    0.00
   1.560   17.63   -1.58    3.85   0.000   0.200   0.000    0.00
   1.570   17.66   -2.10    4.16   0.000   0.200   0.000    0.00
   1.580   18.22   -1.63    4.11   0.000   0.200   0.000    0.00
   1.590   18.07   -1.30    4.25   0.000   0.200   0.000    0.00
   1.600   18.26   -0.57    4.45   0.000   0.200   0.000    0.00
   1.610   18.36    1.02    4.10   0.000   0.200   0.000    0.00
   1.620   17.98    1.23    3.43   0.000   0.200   0.000    0.00
   1.630   17.62    0.45    3.21   0.000   0.200   0.000    0.00
   1.640   17.94    0.71    3.41   0.000   0.200   0.000    0.00
   1.650   18.32   -0.18    3.35   0.000   0.200   0.000    0.00
   1.660   18.37   -0.76    2.97   0.000   0.200   0.000    0.00
   1.670   18.16    0.08    3.08   0.000   0.200   0.000    0.00
   1.680   18.39    1.37    3.42   0.000   0.200   0.000    0.00
   1.690   18.04   -1.61    3.53   0.000   0.200   0.000    0.00
   1.700   18.76   -2.31    3.69   0.000   0.200   0.000    0.00
   1.710   18.83   -3.38    3.24   0.000   0.200   0.000    0.00
   1.720   19.29   -3.46    3.27   0.000   0.200   0.000    0.00
   1.730   19.14   -2.72    2.67   0.000   0.200   0.000    0.00
   1.740   18.89   -2.60    2.91   0.000   0.200   0.000    0.00
   1.750   19.29   -0.80    2.98   0.000   0.200   0.000    0.00
   1.760   19.38    0.29    3.36   0.000   0.200   0.000    0.00
   1.770   19.48    1.79    3.04   0.000   0.200   0.000    0.00
   1.780   20.48   -0.35    3.11   0.000   0.200   0.000    0.00
   1.790   20.52    1.00    3.05   0.000   0.200   0.000    0.00
   1.800   20.53    1.21    3.09   0.000   0.200   0.000    0.00
   1.810   20.36    0.52    3.35   0.000   0.200   0.000    0.00
   1.820   20.31    0.59    3.31   0.000   0.200   0.000    0.00
   1.830   20.61    0.84    2.69   0.000   0.200   0.000    0.00
   1.840   20.12   -0.13    2.43   0.000   0.200   0.000    0.00
   1.850   19.86   -0.45    2.15   0.000   0.200   0.000    0.00
   1.860   19.47   -0.84    2.20   0.000   0.200   0.000    0.00
   1.870   19.47    0.37    1.47   0.000   0.200   0.000    0.00
   1.880   20.11   -0.08    0.93   0.000   0.200   0.000    0.00
   1.890   19.53   -0.65    1.37   0.000   0.200   0.000    0.00
   1.900   19.75   -1.12    2.00   0.000   0.200   0.000    0.00
   1.910   19.63    0.11    2.09   0.000   0.200   0.000    0.00
   1.920   19.23    0.48    2.35   0.000   0.200   0.000    0.00
   1.930   19.71    0.54    1.93   0.000   0.200   0.000    0.00
   1.940   19.30   -0.50    1.70   0.000   0.200   0.000    0.00
   1.950   19.28   -1.30    1.70   0.000   0.200   0.000    0.00
   1.960   18.58   -0.27    1.76   0.000   0.200   0.000    0.00
   1.970   18.45   -1.11    1.50   0.000   0.200   0.000    0.00
   1.980   18.68   -2.49    1.32   0.000   0.200   0.000    0.00
   1.990   18.36   -0.83    1.10   0.000   0.200   0.000    0.00
   2.000   18.71   -0.21    2.11   0.000   0.200   0.000    0.00
   2.010   18.80    1.82    2.29   0.000   0.200   0.000    0.00
   2.020   18.40    3.67    2.40   0.000   0.200   0.000    0.00
   2.030   17.84    5.68    2.79   0.000   0.200   0.000    0.00
   2.040   18.33    5.58    2.47   0.000   0.200   0.000    0.00
   2.050   18.17    6.76    2.79   0.000   0.200   0.000    0.00
   2.060   18.36    6.25    3.15   0.000   0.200   0.000    0.00
   2.070   17.84    6.32    3.44   0.000   0.200   0.000    0.00
   2.080   17.74    4.87    2.81   0.000   0.200   0.000    0.00
   2.090   18.15    3.24    2.84   0.000   0.200   0.000    0.00
   2.100   18.40    3.54    2.88   0.000   0.200   0.000    0.00
   2.110   18.03    3.21    2.26   0.000   0.200   0.000    0.00
   2.120   18.14    3.87    1.83   0.000   0.200   0.000    0.00
   2.130   18.04    3.21    2.02   0.000   0.200   0.000    0.00
   2.140   18.54    4.18    1.48   0.000   0.200   0.000    0.00
   2.150   18.74    5.42    1.40   0.000   0.200   0.000    0.00
   2.160   18.84    6.14    1.45   0.000   0.200   0.000    0.00
   2.170   18.85    6.06    1.91   0.000   0.200   0.000    0.00
   2.180   18.29    7.51    1.38   0.000   0.200   0.000    0.00
   2.190   18.45    5.43    1.47   0.000   0.200   0.000    0.00
   2.200   18.46    6.54    2.05   0.000   0.200   0.000    0.00
   2.210   18.45    7.57    1.88   0.000   0.200   0.000    0.00
   2.220   18.64    6.62    2.37   0.000   0.200   0.000    0.00
   2.230   19.03    8.54    2.18   0.000   0.200   0.000    0.00
   2.240   18.96    6.93    2.65   0.000   0.200   0.000    0.00
   2.250   19.28    8.14    2.92   0.000   0.200   0.000    0.00
   2.260   19.20    6.51    2.77   0.000   0.200   0.000    0.00
   2.270   18.92    3.55    3.19   0.000   0.200   0.000    0.00
   2.280   18.12    3.50    2.99   0.000   0.200   0.000    0.00
   2.290   18.11    2.73    3.59   0.000   0.200   0.000    0.00
   2.300   18.08    2.39    3.96   0.000   0.200   0.000    0.00
   2.310   18.55    2.87    4.01   0.000   0.200   0.000    0.00
   2.320   18.46    2.18    3.90   0.000   0.200   0.000    0.00
   2.330   18.79    3.04    4.13   0.000   0.200   0.000    0.00
   2.340   19.04    3.17    3.88   0.000   0.200   0.000    0.00
   2.350   18.65    2.53    3.48   0.000   0.200   0.000    0.00
   2.360   18.62    2.73    3.72   0.000   0.200   0.000    0.00
   2.370   19.00    2.56    3.92   0.000   0.200   0.000    0.00
   2.380   18.77    3.27    4.40   0.000   0.200   0.000    0.00
   2.390   18.38    3.00    4.42   0.000   0.200   0.000    0.00
   2.400   18.30    4.98    3.96   0.000   0.200   0.000    0.00
   2.410   18.61    4.82    4.01   0.000   0.200   0.000    0.00
   2.420   18.77    5.45    3.97   0.000   0.200   0.000    0.00
   2.430   18.81    3.00    3.98   0.000   0.200   0.000    0.00
   2.440   18.83    3.72    3.46   0.000   0.200   0.000    0.00
   2.450   19.18    5.18    3.08   0.000   0.200   0.000    0.00
   2.460   19.29    5.75    3.10   0.000   0.200   0.000    0.00
   2.470   18.83    4.33    3.05   0.000   0.200   0.000    0.00
   2.480   18.50    3.65    2.99   0.000   0.200   0.000    0.00
   2.490   18.76    2.54    3.11   0.000   0.200   0.000    0.00
   2.500   18.59    1.13    3.18   0.000   0.200   0.000    0.00
   2.510   18.04    4.12    4.00   0.000   0.200   0.000    0.00
   2.520   18.55    5.21    3.59   0.000   0.200   0.000    0.00
   2.530   18.50    5.17    3.22   0.000   0.200   0.000    0.00
   2.540   18.13    2.89    3.14   0.000   0.200   0.000    0.00
   2.550   17.69    1.50    2.64   0.000   0.200   0.000    0.00
   2.560   17.34    0.94    2.65   0.000   0.200   0.000    0.00
   2.570   17.26    4.00    2.13   0.000   0.200   0.000    0.00
   2.580   17.44    4.78    1.36   0.000   0.200   0.000    0.00
   2.590   18.50    6.24    1.42   0.000   0.200   0.000    0.00
   2.600   18.77    8.56    1.88   0.000   0.200   0.000    0.00
   2.610   19.04    9.03    2.17   0.000   0.200   0.000    0.00
   2.620   19.26    8.61    2.62   0.000   0.200   0.000    0.00
   2.630   19.34    9.58    2.19   0.000   0.200   0.000    0.00
   2.640   18.87    9.86    2.67   0.000   0.200   0.000    0.00
   2.650   19.17    8.61    2.11   0.000   0.200   0.000    0.00
   2.660   19.15    7.03    2.49   0.000   0.200   0.000    0.00
   2.670   18.99    6.89    2.62   0.000   0.200   0.000    0.00
   2.680   19.61    5.48    2.67   0.000   0.200   0.000    0.00
   2.690   18.78    7.72    2.49   0.000   0.200   0.000    0.00
   2.700   18.52    7.33    2.44   0.000   0.200   0.000    0.00
   2.710   17.93    7.04    2.21   0.000   0.200   0.000    0.00
   2.720   17.89    7.05    1.85   0.000   0.200   0.000    0.00
   2.730   17.62    8.54    1.74   0.000   0.200   0.000    0.00
   2.740   17.95    7.78    2.24   0.000   0.200   0.000    0.00
   2.750   18.12    8.86    2.01   0.000   0.200   0.000    0.00
   2.760   18.05    9.04    1.74   0.000   0.200   0.000    0.00
   2.770   17.69   10.67    2.47   0.000   0.200   0.000    0.00
   2.780   18.20   12.00    2.87   0.000   0.200   0.000    0.00
   2.790   18.25   11.12    2.87   0.000   0.200   0.000    0.00
   2.800   18.62   11.14    3.20   0.000   0.200   0.000    0.00
   2.810   18.96   12.73    3.33   0.000   0.200   0.000    0.00
   2.820   19.33   11.89    3.15   0.000   0.200   0.000    0.00
   2.830   18.98   11.38    3.42   0.000   0.200   0.000    0.00
   2.840   19.07   11.50    3.56   0.000   0.200   0.000    0.00
   2.850   19.03   11.33    2.82   0.000   0.200   0.000    0.00
   2.860   18.65   10.45    2.64   0.000   0.200   0.000    0.00
   2.870   18.59   11.67    2.84   0.000   0.200   0.000    0.00
   2.880   17.94   11.40    2.30   0.000   0.200   0.000    0.00
   2.890   18.21   11.73    2.70   0.000   0.200   0.000    0.00
   2.900   18.02   11.34    2.78   0.000   0.200   0.000    0.00
   2.910   18.28   10.36    2.42   0.000   0.200   0.000    0.00
   2.920   18.48    9.65    2.12   0.000   0.200   0.000    0.00
   2.930   17.86    9.85    2.61   0.000   0.200   0.000    0.00
   2.940   17.55   10.44    1.94   0.000   0.200   0.000    0.00
   2.950   17.23   10.39    1.80   0.000   0.200   0.000    0.00
   2.960   17.44    9.97    1.47   0.000   0.200   0.000    0.00
   2.970   17.50   10.19    0.90   0.000   0.200   0.000    0.00
   2.980   16.97    9.41    0.64   0.000   0.200   0.000    0.00
   2.990   17.44    8.53    0.71   0.000   0.200   0.000    0.00
   3.000   17.60    8.24    0.30   0.000   0.200   0.000    0.00
   3.010   17.12    8.99    0.16   0.000   0.200   0.000    0.00
   3.020   17.41    8.33    0.34   0.000   0.200   0.000    0.00
   3.030   17.27    7.76    0.61   0.000   0.200   0.000    0.00
   3.040   17.47    8.35    0.37   0.000   0.200   0.000    0.00
   3.050   16.79    8.97    0.49   0.000   0.200   0.000    0.00
   3.060   16.52    6.63    0.74   0.000   0.200   0.000    0.00
   3.070   16.66    7.26    0.89   0.000   0.200   0.000    0.00
   3.080   16.53    5.47    1.06   0.000   0.200   0.000    0.00
   3.090   16.18    4.58    1.37   0.000   0.200   0.000    0.00
   3.100   15.90    4.92    1.72   0.000   0.200   0.000    0.00
   3.110   15.80    3.72    1.76   0.000   0.200   0.000    0.00
   3.120   15.98    2.29    1.53   0.000   0.200   0.000    0.00
   3.130   16.05    2.10    1.68   0.000   0.200   0.000    0.00
   3.140   16.24    3.62    2.14   0.000   0.200   0.000    0.00
   3.150   16.72    4.59    2.18   0.000   0.200   0.000    0.00
   3.160   16.65    6.56    2.41   0.000   0.200   0.000    0.00
   3.170   15.86    5.15    2.87   0.000   0.200   0.000    0.00
   3.180   15.76    3.17    3.31   0.000   0.200   0.000    0.00
   3.190   15.89    3.06    3.12   0.000   0.200   0.000    0.00
   3.200   15.17    2.34    3.28   0.000   0.200   0.000    0.00
   3.210   15.14    2.88    3.14   0.000   0.200   0.000    0.00
   3.220   15.26    5.49    2.81   0.000   0.200   0.000    0.00
   3.230   15.88    6.84    2.60   0.000   0.200   0.000    0.00
   3.240   15.23    5.98    2.62   0.000   0.200   0.000    0.00
   3.250   14.70    5.64    2.63   0.000   0.200   0.000    0.00
   3.260   15.04    4.95    2.14   0.000   0.200   0.000    0.00
   3.270   15.38    3.21    1.99   0.000   0.200   0.000    0.00
   3.280   15.78    3.66    1.48   0.000   0.200   0.000    0.00
   3.290   15.56    3.24    1.15   0.000   0.200   0.000    0.00
   3.300   15.58    4.70    1.48   0.000   0.200   0.000    0.00
   3.310   15.75    4.45    1.63   0.000   0.200   0.000    0.00
   3.320   15.46    4.99    1.81   0.000   0.200   0.000    0.00
   3.330   15.33    3.61    1.78   0.000   0.200   0.000    0.00
   3.340   15.60    3.49    2.07   0.000   0.200   0.000    0.00
   3.350   15.26    2.23    2.71   0.000   0.200   0.000    0.00
   3.360   15.53   -0.05    2.71   0.000   0.200   0.000    0.00
   3.370   15.62    0.07    2.53   0.000   0.200   0.000    0.00
   3.380   15.58    0.14    3.09   0.000   0.200   0.000    0.00
   3.390   16.46   -2.64    3.52   0.000   0.200   0.000    0.00
   3.400   16.45   -3.44    2.74   0.000   0.200   0.000    0.00
   3.410   16.23   -1.63    3.02   0.000   0.200   0.000    0.00
   3.420   16.54   -0.83    2.80   0.000   0.200   0.000    0.00
   3.430   16.40   -0.71    2.46   0.000   0.200   0.000    0.00
   3.440   16.50   -1.84    1.85   0.000   0.200   0.000    0.00
   3.450   16.87   -3.25    1.65   0.000   0.200   0.000    0.00
   3.460   17.05   -2.72    1.74   0.000   0.200   0.000    0.00
   3.470   17.24   -3.73    1.64   0.000   0.200   0.000    0.00
   3.480   17.54   -3.04    1.76   0.000   0.200   0.000    0.00
   3.490   17.43   -4.51    1.68   0.000   0.200   0.000    0.00
   3.500   17.75   -5.88    1.84   0.000   0.200   0.000    0.00
   3.510   17.83   -5.53    1.68   0.000   0.200   0.000    0.00
   3.520   17.55   -5.86    2.27   0.000   0.200   0.000    0.00
   3.530   17.83   -5.46    2.04   0.000   0.200   0.000    0.00
   3.540   17.95   -5.70    1.75   0.000   0.200   0.000    0.00
   3.550   18.06   -5.63    0.67   0.000   0.200   0.000    0.00
   3.560   18.48   -5.79    0.34   0.000   0.200   0.000    0.00
   3.570   18.31   -5.50    0.92   0.000   0.200   0.000    0.00
   3.580   18.11   -4.72    1.64   0.000   0.200   0.000    0.00
   3.590   17.63   -2.92    1.90   0.000   0.200   0.000    0.00
   3.600   17.78   -2.69    2.05   0.000   0.200   0.000    0.00
   3.610   17.37   -2.88    1.57   0.000   0.200   0.000    0.00
   3.620   17.18   -3.03    1.72   0.000   0.200   0.000    0.00
   3.630   17.16   -4.97    1.86   0.000   0.200   0.000    0.00
   3.640   17.13   -5.30    1.64   0.000   0.200   0.000    0.00
   3.650   16.88   -5.23    1.46   0.000   0.200   0.000    0.00
   3.660   17.18   -5.99    0.93   0.000   0.200   0.000    0.00
   3.670   17.80   -5.52    1.08   0.000   0.200   0.000    0.00
   3.680   17.43   -3.85    1.03   0.000   0.200   0.000    0.00
   3.690   17.47   -5.34    1.25   0.000   0.200   0.000    0.00
   3.700   17.56   -6.33    0.46   0.000   0.200   0.000    0.00
   3.710   17.31   -6.31    0.32   0.000   0.200   0.000    0.00
   3.720   17.88   -5.07    0.73   0.000   0.200   0.000    0.00
   3.730   18.06   -4.70    0.73   0.000   0.200   0.000    0.00
   3.740   18.26   -5.62    0.70   0.000   0.200   0.000    0.00
   3.750   18.30   -3.42    0.58   0.000   0.200   0.000    0.00
   3.760   18.29   -5.83    0.01   0.000   0.200   0.000    0.00
   3.770   18.42   -4.02   -0.64   0.000   0.200   0.000    0.00
   3.780   18.43   -2.57   -0.80   0.000   0.200   0.000    0.00
   3.790   18.35   -0.81   -0.34   0.000   0.200   0.000    0.00
   3.800   18.57   -1.16   -0.07   0.000   0.200   0.000    0.00
   3.810   18.06   -2.30    0.26   0.000   0.200   0.000    0.00
   3.820   18.26   -4.51   -0.39   0.000   0.200   0.000    0.00
   3.830   18.75   -4.74   -0.48   0.000   0.200   0.000    0.00
   3.840   18.68   -3.62   -0.50   0.000   0.200   0.000    0.00
   3.850   18.25   -3.76   -1.25   0.000   0.200   0.000    0.00
   3.860   17.98   -1.95   -0.80   0.000   0.200   0.000    0.00
   3.870   18.03   -2.54   -0.72   0.000   0.200   0.000    0.00
   3.880   17.90   -2.37    0.09   0.000   0.200   0.000    0.00
   3.890   17.84   -3.80    0.36   0.000   0.200   0.000    0.00
   3.900   17.82   -3.51    0.41   0.000   0.200   0.000    0.00
   3.910   17.46   -1.80    1.35   0.000   0.200   0.000    0.00
   3.920   17.91   -1.13    1.41   0.000   0.200   0.000    0.00
   3.930   18.50   -1.33    2.00   0.000   0.200   0.000    0.00
   3.940   18.81   -0.40    1.58   0.000   0.200   0.000    0.00
   3.950   18.83    0.49    1.16   0.000   0.200   0.000    0.00
   3.960   19.53    0.41    0.66   0.000   0.200   0.000    0.00
   3.970   19.60    1.94    0.57   0.000   0.200   0.000    0.00
   3.980   19.24    3.65    0.35   0.000   0.200   0.000    0.00
   3.990   19.10    3.98    0.59   0.000   0.200   0.000    0.00
   4.000   18.95    2.26    0.78   0.000   0.200   0.000    0.00
   4.010   19.17    4.47    0.94   0.000   0.200   0.000    0.00
   4.020   19.28    4.38    1.19   0.000   0.200   0.000    0.00
   4.030   19.42    3.93    1.31   0.000   0.200   0.000    0.00
   4.040   18.75    4.31    1.55   0.000   0.200   0.000    0.00
   4.050   18.56    4.17    1.36   0.000   0.200   0.000    0.00
   4.060   18.60    1.60    1.15   0.000   0.200   0.000    0.00
   4.070   18.77    1.31    1.17   0.000   0.200   0.000    0.00
   4.080   19.09    2.33    0.54   0.000   0.200   0.000    0.00
   4.090   19.36    3.06    0.49   0.000   0.200   0.000    0.00
   4.100   18.79    2.48    0.57   0.000   0.200   0.000    0.00
   4.110   18.98    3.95    0.36   0.000   0.200   0.000    0.00
   4.120   19.10    6.11    0.31   0.000   0.200   0.000    0.00
   4.130   19.26    6.23    0.20   0.000   0.200   0.000    0.00
   4.140   19.57    6.32    0.11   0.000   0.200   0.000    0.00
   4.150   19.38    5.17    0.01   0.000   0.200   0.000    0.00
   4.160   19.38    4.22   -0.08   0.000   0.200   0.000    0.00
   4.170   19.02    4.83   -0.10   0.000   0.200   0.000    0.00
   4.180   18.74    5.43   -0.42   0.000   0.200   0.000    0.00
   4.190   18.65    5.89    0.04   0.000   0.200   0.000    0.00
   4.200   18.26    4.83    1.01   0.000   0.200   0.000    0.00
   4.210   18.36    4.95    0.31   0.000   0.200   0.000    0.00
   4.220   18.69    4.84    0.20   0.000   0.200   0.000    0.00
   4.230   19.26    5.00    1.00   0.000   0.200   0.000    0.00
   4.240   19.77    5.10    1.45   0.000   0.200   0.000    0.00
   4.250   19.55    4.01    1.15   0.000   0.200   0.000    0.00
   4.260   18.95    6.03    0.87   0.000   0.200   0.000    0.00
   4.270   19.50    5.85    0.69   0.000   0.200   0.000    0.00
   4.280   19.37    6.71    0.61   0.000   0.200   0.000    0.00
   4.290   19.17    4.89    0.33   0.000   0.200   0.000    0.00
   4.300   19.00    5.42    0.48   0.000   0.200   0.000    0.00
   4.310   18.68    7.15    0.78   0.000   0.200   0.000    0.00
   4.320   18.30    7.20    0.97   0.000   0.200   0.000    0.00
   4.330   18.59    6.70    1.12   0.000   0.200   0.000    0.00
   4.340   17.92    5.27    1.25   0.000   0.200   0.000    0.00
   4.350   18.31    6.12    1.32   0.000   0.200   0.000    0.00
   4.360   18.20    5.48    1.27   0.000   0.200   0.000    0.00
   4.370   18.48    3.12    1.00   0.000   0.200   0.000    0.00
   4.380   18.39    2.32    1.26   0.000   0.200   0.000    0.00
   4.390   19.00    1.47    1.12   0.000   0.200   0.000    0.00
   4.400   18.59    3.24    0.64   0.000   0.200   0.000    0.00
   4.410   18.26    3.67    0.08   0.000   0.200   0.000    0.00
   4.420   18.68    4.12   -0.40   0.000   0.200   0.000    0.00
   4.430   18.80    5.32   -0.23   0.000   0.200   0.000    0.00
   4.440   18.87    6.66   -0.21   0.000   0.200   0.000    0.00
   4.450   18.96    5.64   -0.48   0.000   0.200   0.000    0.00
   4.460   19.05    7.47   -0.17   0.000   0.200   0.000    0.00
   4.470   18.99    7.72    0.40   0.000   0.200   0.000    0.00
   4.480   18.54    5.87    0.48   0.000   0.200   0.000    0.00
   4.490   18.70    6.59    1.12   0.000   0.200   0.000    0.00
   4.500   19.22    5.47    0.91   0.000   0.200   0.000    0.00
   4.510   19.08    4.77    0.57   0.000   0.200   0.000    0.00
   4.520   18.74    3.43    0.65   0.000   0.200   0.000    0.00
   4.530   19.34    3.30    0.36   0.000   0.200   0.000    0.00
   4.540   19.14    2.49    0.56   0.000   0.200   0.000    0.00