! This hub-height wind-speed file was generated by TurbSim (from OpenFAST--128-NOTFOUND) on 23-Aug-2023 at 09:41:11.
!
! The requested statistics for this data were:
!    Mean Total Wind Speed =   20.000 m/s
!    Turbulence Intensity  =   14.420%
!
!   Time  HorSpd  WndDir  VerSpd  HorShr  VerShr  LnVShr  GstSpd
!  (sec)   (m/s)   (deg)   (m/s)     (-)     (-)     (-)   (m/s)
   0.000   20.66   -6.01    0.88   0.000   0.200   0.000    0.00
   0.010   20.58   -6.16    1.36   0.000   0.200   0.000    0.00
   0.020   20.46   -6.48    1.20   0.000   0.200   0.000    0.00
   0.030   20.42   -7.00    0.64   0.000   0.200   0.000    0.00
   0.040   19.92   -6.26    0.71   0.000   0.200   0.000    0.00
   0.050   19.90   -6.00    0.50   0.000   0.200   0.000    0.00
   0.060   19.51   -7.45    0.99   0.000   0.200   0.000    0.00
   0.070   19.33   -7.63    0.80   0.000   0.200   0.000    0.00
   0.080   19.54   -6.33    1.05   0.000   0.200   0.000    0.00
   0.090   19.46   -5.93    1.46   0.000   0.200   0.000    0.00
   0.100   19.30   -6.91    1.81   0.000   0.200   0.000    0.00
   0.110   19.38   -6.51    2.44   0.000   0.200   0.000    0.00
   0.120   19.35   -5.30    2.02   0.000   0.200   0.000    0.00
   0.130   19.28   -7.42    2.51   0.000   0.200   0.000    0.00
   0.140   19.65   -7.81    2.31   0.000   0.200   0.000    0.00
   0.150   20.08   -9.27    2.13   0.000   0.200   0.000    0.00
   0.160   19.68   -7.94    2.75   0.000   0.200   0.000    0.00
   0.170   19.69   -7.75    2.60   0.000   0.200   0.000    0.00
   0.180   19.62   -7.49    3.11   0.000   0.200   0.000    0.00
   0.190   19.90   -8.95    2.71   0.000   0.200   0.000    0.00
   0.200   20.22   -9.45    2.28   0.000   0.200   0.000    0.00
   0.210   20.02   -9.71    2.86   0.000   0.200   0.000    0.00
   0.220   20.31   -9.54    3.04   0.000   0.200   0.000    0.00
   0.230   20.16   -7.86    2.97   0.000   0.200   0.000    0.00
   0.240   20.73   -7.72    2.37   0.000   0.200   0.000    0.00
   0.250   20.02   -6.50    2.59   0.000   0.200   0.000    0.00
   0.260   19.90   -6.12    2.58   0.000   0.200   0.000    0.00
   0.270   20.16   -6.82    2.60   0.000   0.200   0.000    0.00
   0.280   20.21   -7.25    2.75   0.000   0.200   0.000    0.00
   0.290   20.44   -8.03    2.34   0.000   0.200   0.000    0.00
   0.300   20.43   -8.86    1.65   0.000   0.200   0.000    0.00
   0.310   20.75  -11.37    1.42   0.000   0.200   0.000    0.00
   0.320   20.69  -10.57    1.32   0.000   0.200   0.000    0.00
   0.330   19.80   -9.59    1.22   0.000   0.200   0.000    0.00
   0.340   20.42  -10.60    0.37   0.000   0.200   0.000    0.00
   0.350   20.08   -8.92    0.60   0.000   0.200   0.000    0.00
   0.360   20.00   -9.54    0.32   0.000   0.200   0.000    0.00
   0.370   20.43   -9.68    0.66   0.000   0.200   0.000    0.00
   0.380   20.06   -9.56    0.68   0.000   0.200   0.000    0.00
   0.390   20.09   -9.35    0.18   0.000   0.200   0.000    0.00
   0.400   20.28   -9.65    0.62   0.000   0.200   0.000    0.00
   0.410   20.00  -11.47    0.36   0.000   0.200   0.000    0.00
   0.420   20.22  -11.97    0.21   0.000   0.200   0.000    0.00
   0.430   20.64  -12.01   -0.21   0.000   0.200   0.000    0.00
   0.440   19.78  -11.38   -0.36   0.000   0.200   0.000    0.00
   0.450   19.92  -11.49   -0.07   0.000   0.200   0.000    0.00
   0.460   20.01   -9.95   -0.07   0.000   0.200   0.000    0.00
   0.470   19.89  -10.84   -0.21   0.000   0.200   0.000    0.00
   0.480   20.10  -11.52   -0.12   0.000   0.200   0.000    0.00
   0.490   20.02  -10.18   -0.25   0.000   0.200   0.000    0.00
   0.500   19.67  -10.12   -0.29   0.000   0.200   0.000    0.00
   0.510   19.59  -10.45   -0.39   0.000   0.200   0.000    0.00
   0.520   19.88  -10.20   -0.05   0.000   0.200   0.000    0.00
   0.530   20.49   -9.73   -0.45   0.000   0.200   0.000    0.00
   0.540   21.04  -10.19   -0.93   0.000   0.200   0.000    0.00
   0.550   21.06  -10.49   -0.73   0.000   0.200   0.000    0.00
   0.560   20.81  -10.10   -0.38   0.000   0.200   0.000    0.00
   0.570   20.97   -9.02   -0.45   0.000   0.200   0.000    0.00
   0.580   21.45   -8.70   -0.39   0.000   0.200   0.000    0.00
   0.590   21.50   -9.53   -0.68   0.000   0.200   0.000    0.00
   0.600   21.76   -8.47   -0.98   0.000   0.200   0.000    0.00
   0.610   21.67   -7.49   -1.08   0.000   0.200   0.000    0.00
   0.620   21.66   -9.32   -1.45   0.000   0.200   0.000    0.00
   0.630   21.41   -8.88   -1.64   0.000   0.200   0.000    0.00
   0.640   21.35   -9.13   -1.69   0.000   0.200   0.000    0.00
   0.650   20.14   -7.36   -1.47   0.000   0.200   0.000    0.00
   0.660   19.95   -5.89   -0.25   0.000   0.200   0.000    0.00
   0.670   20.00   -4.22   -0.11   0.000   0.200   0.000    0.00
   0.680   20.49   -4.52   -0.48   0.000   0.200   0.000    0.00
   0.690   20.73   -5.82    0.09   0.000   0.200   0.000    0.00
   0.700   20.61   -6.87   -0.20   0.000   0.200   0.000    0.00
   0.710   20.95   -8.14   -0.67   0.000   0.200   0.000    0.00
   0.720   21.17   -8.67   -0.23   0.000   0.200   0.000    0.00
   0.730   20.91   -9.62   -0.41   0.000   0.200   0.000    0.00
   0.740   20.87  -10.07   -0.18   0.000   0.200   0.000    0.00
   0.750   20.66  -11.20   -0.21   0.000   0.200   0.000    0.00
   0.760   20.75  -10.81    0.10   0.000   0.200   0.000    0.00
   0.770   20.99  -10.76    0.19   0.000   0.200   0.000    0.00
   0.780   20.34  -10.43   -0.18   0.000   0.200   0.000    0.00
   0.790   20.13  -11.06    0.24   0.000   0.200   0.000    0.00
   0.800   20.11  -12.41    0.29   0.000   0.200   0.000    0.00
   0.810   20.36  -13.39    0.97   0.000   0.200   0.000    0.00
   0.820   20.29  -12.74    0.44   0.000   0.200   0.000    0.00
   0.830   20.20  -11.03    0.29   0.000   0.200   0.000    0.00
   0.840   20.17  -11.74    0.14   0.000   0.200   0.000    0.00
   0.850   20.57  -11.34    0.60   0.000   0.200   0.000    0.00
   0.860   20.77  -10.33    0.53   0.000   0.200   0.000    0.00
   0.870   21.09  -10.32    0.34   0.000   0.200   0.000    0.00
   0.880   21.10  -12.04    0.34   0.000   0.200   0.000    0.00
   0.890   21.11  -14.15   -0.21   0.000   0.200   0.000    0.00
   0.900   21.38  -12.80   -0.49   0.000   0.200   0.000    0.00
   0.910   21.86  -12.23   -0.82   0.000   0.200   0.000    0.00
   0.920   22.02  -10.96   -1.28   0.000   0.200   0.000    0.00
   0.930   22.01  -11.53   -0.39   0.000   0.200   0.000    0.00
   0.940   21.83  -10.20   -0.42   0.000   0.200   0.000    0.00
   0.950   21.46  -10.83   -0.32   0.000   0.200   0.000    0.00
   0.960   21.86   -9.12   -0.56   0.000   0.200   0.000    0.00
   0.970   21.76   -8.38   -0.31   0.000   0.200   0.000    0.00
   0.980   21.83  -10.34   -0.18   0.000   0.200   0.000    0.00
   0.990   21.57  -11.34   -0.64   0.000   0.200   0.000    0.00
   1.000   21.60  -11.41   -0.64   0.000   0.200   0.000    0.00
   1.010   21.88  -10.19   -0.27   0.000   0.200   0.000    0.00
   1.020   21.89   -9.67   -0.08   0.000   0.200   0.000    0.00
   1.030   22.29   -9.17    0.05   0.000   0.200   0.000    0.00
   1.040   22.29   -9.75   -0.08   0.000   0.200   0.000    0.00
   1.050   22.37  -10.51   -0.38   0.000   0.200   0.000    0.00
   1.060   21.45  -11.03   -0.31   0.000   0.200   0.000    0.00
   1.070   22.10  -10.32    0.12   0.000   0.200   0.000    0.00
   1.080   22.27   -9.65   -0.50   0.000   0.200   0.000    0.00
   1.090   21.89  -10.18   -1.09   0.000   0.200   0.000    0.00
   1.100   21.37  -10.37   -0.36   0.000   0.200   0.000    0.00
   1.110   21.02   -9.45    0.39   0.000   0.200   0.000    0.00
   1.120   20.91  -10.37   -0.16   0.000   0.200   0.000    0.00
   1.130   20.74   -9.83   -0.18   0.000   0.200   0.000    0.00
   1.140   20.46  -10.42    0.07   0.000   0.200   0.000    0.00
   1.150   20.10  -12.31   -0.40   0.000   0.200   0.000    0.00
   1.160   20.34  -12.40   -0.17   0.000   0.200   0.000    0.00
   1.170   21.32  -12.22    0.25   0.000   0.200   0.000    0.00
   1.180   21.57  -12.05    0.69   0.000   0.200   0.000    0.00
   1.190   21.36  -10.09    0.55   0.000   0.200   0.000    0.00
   1.200   21.17   -8.52    0.18   0.000   0.200   0.000    0.00
   1.210   20.64   -7.92    0.07   0.000   0.200   0.000    0.00
   1.220   20.88   -7.59   -0.59   0.000   0.200   0.000    0.00
   1.230   21.41   -7.72   -0.72   0.000   0.200   0.000    0.00
   1.240   21.50   -6.06   -1.81   0.000   0.200   0.000    0.00
   1.250   21.22   -6.43   -1.79   0.000   0.200   0.000    0.00
   1.260   21.49   -5.44   -1.44   0.000   0.200   0.000    0.00
   1.270   21.03   -5.78   -1.80   0.000   0.200   0.000    0.00
   1.280   21.52   -7.18   -2.00   0.000   0.200   0.000    0.00
   1.290   21.63   -6.93   -1.91   0.000   0.200   0.000    0.00
   1.300   21.55   -7.70   -2.24   0.000   0.200   0.000    0.00
   1.310   21.71   -7.61   -1.76   0.000   0.200   0.000    0.00
   1.320   21.52   -8.44   -1.64   0.000   0.200   0.000    0.00
   1.330   21.90   -8.94   -1.23   0.000   0.200   0.000    0.00
   1.340   22.03   -9.44   -1.24   0.000   0.200   0.000    0.00
   1.350   22.37   -8.66   -1.44   0.000   0.200   0.000    0.00
   1.360   21.84   -7.07   -2.02   0.000   0.200   0.000    0.00
   1.370   21.88   -7.81   -2.18   0.000   0.200   0.000    0.00
   1.380   21.74   -9.96   -2.42   0.000   0.200   0.000    0.00
   1.390   21.75   -9.73   -2.57   0.000   0.200   0.000    0.00
   1.400   21.80   -8.14   -2.43   0.000   0.200   0.000    0.00
   1.410   22.29   -9.40   -2.46   0.000   0.200   0.000    0.00
   1.420   22.34   -8.66   -1.97   0.000   0.200   0.000    0.00
   1.430   21.98   -8.78   -1.66   0.000   0.200   0.000    0.00
   1.440   21.79   -9.84   -1.94   0.000   0.200   0.000    0.00
   1.450   21.66   -9.51   -1.78   0.000   0.200   0.000    0.00
   1.460   21.37  -10.20   -2.22   0.000   0.200   0.000    0.00
   1.470   21.02   -8.47   -1.79   0.000   0.200   0.000    0.00
   1.480   21.29   -8.51   -1.50   0.000   0.200   0.000    0.00
   1.490   20.97   -8.41   -1.71   0.000   0.200   0.000    0.00
   1.500   21.00  -10.16   -1.83   0.000   0.200   0.000    0.00
   1.510   20.77  -11.94   -1.90   0.000   0.200   0.000    0.00
   1.520   20.59  -12.24   -2.00   0.000   0.200   0.000    0.00
   1.530   21.08  -13.05   -1.94   0.000   0.200   0.000    0.00
   1.540   21.12  -13.57   -2.34   0.000   0.200   0.000    0.00
   1.550   20.79  -14.78   -3.06   0.000   0.200   0.000    0.00
   1.560   20.89  -13.23   -2.80   0.000   0.200   0.000    0.00
   1.570   20.82  -11.66   -2.68   0.000   0.200   0.000    0.00
   1.580   20.57  -11.74   -2.26   0.000   0.200   0.000    0.00
   1.590   20.77  -11.09   -2.31   0.000   0.200   0.000    0.00
   1.600   20.81  -10.56   -1.66   0.000   0.200   0.000    0.00
   1.610   20.60   -8.91   -2.16   0.000   0.200   0.000    0.00
   1.620   20.40  -10.81   -2.04   0.000   0.200   0.000    0.00
   1.630   20.78  -13.39   -1.81   0.000   0.200   0.000    0.00
   1.640   20.35  -13.24   -2.20   0.000   0.200   0.000    0.00
   1.650   20.04  -12.75   -1.64   0.000   0.200   0.000    0.00
   1.660   19.92  -10.47   -1.76   0.000   0.200   0.000    0.00
   1.670   19.32  -11.54   -1.88   0.000   0.200   0.000    0.00
   1.680   19.67  -11.90   -0.93   0.000   0.200   0.000    0.00
   1.690   19.95  -12.93   -0.86   0.000   0.200   0.000    0.00
   1.700   20.50  -13.14   -1.42   0.000   0.200   0.000    0.00
   1.710   20.87  -13.89   -1.46   0.000   0.200   0.000    0.00
   1.720   20.89  -11.29   -1.32   0.000   0.200   0.000    0.00
   1.730   20.95  -10.74   -1.43   0.000   0.200   0.000    0.00
   1.740   21.39  -11.85   -1.61   0.000   0.200   0.000    0.00
   1.750   20.83  -11.99   -1.51   0.000   0.200   0.000    0.00
   1.760   20.96   -9.82   -1.60   0.000   0.200   0.000    0.00
   1.770   21.34   -8.98   -1.50   0.000   0.200   0.000    0.00
   1.780   21.86   -6.36   -1.81   0.000   0.200   0.000    0.00
   1.790   22.26   -5.65   -2.15   0.000   0.200   0.000    0.00
   1.800   21.92   -6.44   -1.97   0.000   0.200   0.000    0.00
   1.810   22.14   -5.81   -1.46   0.000   0.200   0.000    0.00
   1.820   22.08   -5.30   -1.52   0.000   0.200   0.000    0.00
   1.830   22.02   -6.09   -1.34   0.000   0.200   0.000    0.00
   1.840   22.14   -5.31   -1.13   0.000   0.200   0.000    0.00
   1.850   22.60   -5.77   -1.30   0.000   0.200   0.000    0.00
   1.860   22.52   -4.75   -1.73   0.000   0.200   0.000    0.00
   1.870   22.10   -4.87   -1.45   0.000   0.200   0.000    0.00
   1.880   21.83   -5.23   -1.20   0.000   0.200   0.000    0.00
   1.890   21.43   -5.73   -1.62   0.000   0.200   0.000    0.00
   1.900   21.43   -5.64   -1.23   0.000   0.200   0.000    0.00
   1.910   21.83   -6.74   -1.26   0.000   0.200   0.000    0.00
   1.920   21.38   -5.79   -1.28   0.000   0.200   0.000    0.00
   1.930   21.75   -5.26   -1.45   0.000   0.200   0.000    0.00
   1.940   21.89   -6.09   -1.52   0.000   0.200   0.000    0.00
   1.950   21.80   -7.27   -1.58   0.000   0.200   0.000    0.00
   1.960   22.00   -6.61   -2.08   0.000   0.200   0.000    0.00
   1.970   21.84   -7.23   -1.73   0.000   0.200   0.000    0.00
   1.980   21.62   -7.40   -1.69   0.000   0.200   0.000    0.00
   1.990   21.89   -7.91   -1.48   0.000   0.200   0.000    0.00
   2.000   21.69   -7.56   -1.66   0.000   0.200   0.000    0.00
   2.010   22.23   -6.94   -1.53   0.000   0.200   0.000    0.00
   2.020   22.09   -7.80   -2.40   0.000   0.200   0.000    0.00
   2.030   22.10   -8.91   -2.27   0.000   0.200   0.000    0.00
   2.040   22.18  -10.34   -2.83   0.000   0.200   0.000    0.00
   2.050   21.80   -9.49   -2.56   0.000   0.200   0.000    0.00
   2.060   21.18   -8.76   -2.14   0.000   0.200   0.000    0.00
   2.070   21.29   -8.31   -2.44   0.000   0.200   0.000    0.00
   2.080   21.40   -7.49   -2.81   0.000   0.200   0.000    0.00
   2.090   21.73   -7.48   -3.03   0.000   0.200   0.000    0.00
   2.100   21.38   -6.36   -2.96   0.000   0.200   0.000    0.00
   2.110   21.62   -7.48   -3.27   0.000   0.200   0.000    0.00
   2.120   20.96   -7.01   -3.32   0.000   0.200   0.000    0.00
   2.130   20.90   -6.09   -3.47   0.000   0.200   0.000    0.00
   2.140   21.33   -6.58   -3.09   0.000   0.200   0.000    0.00
   2.150   21.52   -5.68   -2.74   0.000   0.200   0.000    0.00
   2.160   21.75   -5.82   -3.27   0.000   0.200   0.000    0.00
   2.170   21.89   -6.42   -3.47   0.000   0.200   0.000    0.00
   2.180   21.75   -4.73   -3.27   0.000   0.200   0.000    0.00
   2.190   21.84   -5.83   -3.59   0.000   0.200   0.000    0.00
   2.200   21.20   -4.02   -4.27   0.000   0.200   0.000    0.00
   2.210   21.29   -3.09   -3.97   0.000   0.200   0.000    0.00
   2.220   21.62   -2.91   -3.79   0.000   0.200   0.000    0.00
   2.230   21.40   -2.50   -3.43   0.000   0.200   0.000    0.00
   2.240   21.56   -4.92   -2.93   0.000   0.200   0.000    0.00
   2.250   21.42   -4.22   -3.02   0.000   0.200   0.000    0.00
   2.260   21.14   -3.56   -3.11   0.000   0.200   0.000    0.00
   2.270   21.37   -4.33   -3.03   0.000   0.200   0.000    0.00
   2.280   21.61   -5.74   -3.31   0.000   0.200   0.000    0.00
   2.290   22.11   -7.13   -2.90   0.000   0.200   0.000    0.00
   2.300   21.70   -6.89   -3.42   0.000   0.200   0.000    0.00
   2.310   21.68   -7.46   -3.40   0.000   0.200   0.000    0.00
   2.320   21.72   -7.36   -3.88   0.000   0.200   0.000    0.00
   2.330   21.66   -7.43   -3.82   0.000   0.200   0.000    0.00
   2.340   21.61   -8.55   -3.55   0.000   0.200   0.000    0.00
   2.350   21.23   -8.05   -3.88   0.000   0.200   0.000    0.00
   2.360   21.39   -7.68   -4.35   0.000   0.200   0.000    0.00
   2.370   21.47   -8.39   -4.99   0.000   0.200   0.000    0.00
   2.380   21.62   -8.40   -4.79   0.000   0.200   0.000    0.00
   2.390   22.15   -7.58   -3.59   0.000   0.200   0.000    0.00
   2.400   22.59   -8.13   -3.67   0.000   0.200   0.000    0.00
   2.410   22.47   -7.23   -3.71   0.000   0.200   0.000    0.00
   2.420   22.63   -6.19   -3.48   0.000   0.200   0.000    0.00
   2.430   22.02   -6.09   -3.56   0.000   0.200   0.000    0.00
   2.440   21.83   -7.73   -3.46   0.000   0.200   0.000    0.00
   2.450   21.74   -6.69   -3.28   0.000   0.200   0.000    0.00
   2.460   21.99   -7.75   -3.37   0.000   0.200   0.000    0.00
   2.470   22.32   -7.67   -2.90   0.000   0.200   0.000    0.00
   2.480   22.33   -8.81   -2.80   0.000   0.200   0.000    0.00
   2.490   22.30  -10.02   -3.14   0.000   0.200   0.000    0.00
   2.500   22.16   -9.42   -2.91   0.000   0.200   0.000    0.00
   2.510   22.08  -10.63   -3.03   0.000   0.200   0.000    0.00
   2.520   21.79  -11.32   -3.38   0.000   0.200   0.000    0.00
   2.530   21.85  -11.20   -3.56   0.000   0.200   0.000    0.00
   2.540   21.96  -10.45   -3.17   0.000   0.200   0.000    0.00
   2.550   21.94  -10.23   -2.89   0.000   0.200   0.000    0.00
   2.560   22.00  -10.89   -2.93   0.000   0.200   0.000    0.00
   2.570   21.98  -10.31   -2.79   0.000   0.200   0.000    0.00
   2.580   21.67  -10.38   -2.86   0.000   0.200   0.000    0.00
   2.590   21.79  -10.10   -3.90   0.000   0.200   0.000    0.00
   2.600   21.59  -10.78   -3.38   0.000   0.200   0.000    0.00
   2.610   21.37  -10.45   -3.80   0.000   0.200   0.000    0.00
   2.620   21.84   -9.14   -3.90   0.000   0.200   0.000    0.00
   2.630   22.47   -9.36   -2.95   0.000   0.200   0.000    0.00
   2.640   22.52   -9.18   -3.04   0.000   0.200   0.000    0.00
   2.650   22.28   -9.19   -3.54   0.000   0.200   0.000    0.00
   2.660   22.27   -7.75   -3.50   0.000   0.200   0.000    0.00
   2.670   21.49   -8.31   -3.94   0.000   0.200   0.000    0.00
   2.680   21.51   -9.42   -3.88   0.000   0.200   0.000    0.00
   2.690   21.23  -11.38   -3.51   0.000   0.200   0.000    0.00
   2.700   20.77  -11.59   -3.44   0.000   0.200   0.000    0.00
   2.710   20.98  -11.55   -3.14   0.000   0.200   0.000    0.00
   2.720   21.10  -10.24   -2.78   0.000   0.200   0.000    0.00
   2.730   20.89  -10.64   -2.34   0.000   0.200   0.000    0.00
   2.740   21.58  -10.93   -2.05   0.000   0.200   0.000    0.00
   2.750   21.92   -8.56   -2.36   0.000   0.200   0.000    0.00
   2.760   22.07  -10.17   -2.31   0.000   0.200   0.000    0.00
   2.770   21.66   -9.87   -2.80   0.000   0.200   0.000    0.00
   2.780   21.58   -9.76   -2.11   0.000   0.200   0.000    0.00
   2.790   22.03  -11.56   -1.51   0.000   0.200   0.000    0.00
   2.800   22.11  -11.19   -1.48   0.000   0.200   0.000    0.00
   2.810   22.23   -9.33   -1.80   0.000   0.200   0.000    0.00
   2.820   22.08   -9.12   -1.35   0.000   0.200   0.000    0.00
   2.830   22.13   -9.59   -1.29   0.000   0.200   0.000    0.00
   2.840   22.18   -9.50   -1.18   0.000   0.200   0.000    0.00
   2.850   22.49  -10.21   -1.50   0.000   0.200   0.000    0.00
   2.860   22.21   -8.60   -2.04   0.000   0.200   0.000    0.00
   2.870   22.58   -8.39   -1.76   0.000   0.200   0.000    0.00
   2.880   22.72   -7.55   -2.25   0.000   0.200   0.000    0.00
   2.890   22.42   -8.76   -2.33   0.000   0.200   0.000    0.00
   2.900   22.12  -11.25   -1.96   0.000   0.200   0.000    0.00
   2.910   21.77  -11.04   -1.44   0.000   0.200   0.000    0.00
   2.920   21.67  -10.87   -1.28   0.000   0.200   0.000    0.00
   2.930   22.04   -8.77   -1.39   0.000   0.200   0.000    0.00
   2.940   22.52   -8.96   -1.60   0.000   0.200   0.000    0.00
   2.950   23.47   -9.75   -2.15   0.000   0.200   0.000    0.00
   2.960   23.28  -11.30   -1.95   0.000   0.200   0.000    0.00
   2.970   23.47  -10.31   -1.55   0.000   0.200   0.000    0.00
   2.980   23.23  -10.39   -1.69   0.000   0.200   0.000    0.00
   2.990   23.25   -9.17   -1.62   0.000   0.200   0.000    0.00
   3.000   23.62   -9.05   -1.32   0.000   0.200   0.000    0.00
   3.010   23.58   -8.54   -1.96   0.000   0.200   0.000    0.00
   3.020   23.40   -7.62   -2.31   0.000   0.200   0.000    0.00
   3.030   23.17   -9.37   -2.35   0.000   0.200   0.000    0.00
   3.040   22.95   -8.44   -2.01   0.000   0.200   0.000    0.00
   3.050   23.05   -8.94   -1.85   0.000   0.200   0.000    0.00
   3.060   22.91   -7.85   -1.56   0.000   0.200   0.000    0.00
   3.070   22.81   -8.76   -1.47   0.000   0.200   0.000    0.00
   3.080   22.68   -8.42   -2.26   0.000   0.200   0.000    0.00
   3.090   22.77   -8.46   -2.57   0.000   0.200   0.000    0.00
   3.100   23.81   -9.33   -2.65   0.000   0.200   0.000    0.00
   3.110   23.71   -9.73   -2.93   0.000   0.200   0.000    0.00
   3.120   23.78   -8.07   -2.64   0.000   0.200   0.000    0.00
   3.130   23.73   -8.42   -2.47   0.000   0.200   0.000    0.00
   3.140   23.48   -9.28   -2.11   0.000   0.200   0.000    0.00
   3.150   23.62   -9.00   -2.60   0.000   0.200   0.000    0.00
   3.160   23.47   -8.93   -2.26   0.000   0.200   0.000    0.00
   3.170   23.34   -8.54   -2.02   0.000   0.200   0.000    0.00
   3.180   23.11   -8.91   -1.92   0.000   0.200   0.000    0.00
   3.190   23.13   -8.76   -2.04   0.000   0.200   0.000    0.00
   3.200   23.23   -9.13   -2.09   0.000   0.200   0.000    0.00
   3.210   22.70   -9.49   -2.33   0.000   0.200   0.000    0.00
   3.220   22.65   -9.39   -1.95   0.000   0.200   0.000    0.00
   3.230   22.47  -11.00   -2.02   0.000   0.200   0.000    0.00
   3.240   22.88  -11.78   -1.87   0.000   0.200   0.000    0.00
   3.250   23.25   -9.16   -1.64   0.000   0.200   0.000    0.00
   3.260   23.48   -8.92   -1.42   0.000   0.200   0.000    0.00
   3.270   23.55   -8.24   -1.44   0.000   0.200   0.000    0.00
   3.280   23.58   -8.00   -1.46   0.000   0.200   0.000    0.00
   3.290   23.41   -7.45   -0.79   0.000   0.200   0.000    0.00
   3.300   23.23   -7.15   -0.40   0.000   0.200   0.000    0.00
   3.310   23.42   -7.05   -1.17   0.000   0.200   0.000    0.00
   3.320   23.99   -6.99   -0.93   0.000   0.200   0.000    0.00
   3.330   24.37   -7.52   -1.24   0.000   0.200   0.000    0.00
   3.340   24.24   -7.73   -1.29   0.000   0.200   0.000    0.00
   3.350   23.90   -7.26   -1.29   0.000   0.200   0.000    0.00
   3.360   24.19   -5.90   -1.07   0.000   0.200   0.000    0.00
   3.370   23.98   -4.58   -0.87   0.000   0.200   0.000    0.00
   3.380   24.16   -4.65   -1.20   0.000   0.200   0.000    0.00
   3.390   24.01   -4.86   -1.29   0.000   0.200   0.000    0.00
   3.400   23.83   -4.56   -1.40   0.000   0.200   0.000    0.00
   3.410   23.87   -5.80   -1.33   0.000   0.200   0.000    0.00
   3.420   23.64   -5.52   -1.07   0.000   0.200   0.000    0.00
   3.430   23.30   -5.94   -1.57   0.000   0.200   0.000    0.00
   3.440   23.47   -6.81   -1.54   0.000   0.200   0.000    0.00
   3.450   23.50   -7.36   -1.07   0.000   0.200   0.000    0.00
   3.460   23.72   -6.50   -1.21   0.000   0.200   0.000    0.00
   3.470   24.18   -5.09   -1.40   0.000   0.200   0.000    0.00
   3.480   23.75   -5.87   -1.28   0.000   0.200   0.000    0.00
   3.490   23.36   -7.72   -1.65   0.000   0.200   0.000    0.00
   3.500   23.13   -8.95   -2.02   0.000   0.200   0.000    0.00
   3.510   23.21   -8.43   -1.95   0.000   0.200   0.000    0.00
   3.520   22.89   -8.67   -1.97   0.000   0.200   0.000    0.00
   3.530   22.59   -8.91   -1.60   0.000   0.200   0.000    0.00
   3.540   22.71   -9.01   -1.60   0.000   0.200   0.000    0.00
   3.550   22.65   -9.50   -2.16   0.000   0.200   0.000    0.00
   3.560   22.87  -10.43   -1.74   0.000   0.200   0.000    0.00
   3.570   22.85  -10.88   -2.09   0.000   0.200   0.000    0.00
   3.580   23.63  -11.63   -2.48   0.000   0.200   0.000    0.00
   3.590   23.70  -12.33   -2.16   0.000   0.200   0.000    0.00
   3.600   23.84  -11.66   -1.40   0.000   0.200   0.000    0.00
   3.610   23.99  -10.85   -1.46   0.000   0.200   0.000    0.00
   3.620   23.63  -11.33   -2.30   0.000   0.200   0.000    0.00
   3.630   23.59  -11.27   -2.43   0.000   0.200   0.000    0.00
   3.640   23.09  -10.47   -1.79   0.000   0.200   0.000    0.00
   3.650   22.67   -8.61   -1.73   0.000   0.200   0.000    0.00
   3.660   22.91   -8.00   -2.30   0.000   0.200   0.000    0.00
   3.670   22.92   -9.17   -2.42   0.000   0.200   0.000    0.00
   3.680   23.20   -9.42   -2.40   0.000   0.200   0.000    0.00
   3.690   23.23   -9.10   -2.65   0.000   0.200   0.000    0.00
   3.700   23.23   -8.16   -2.41   0.000   0.200   0.000    0.00
   3.710   23.24   -7.63   -2.61   0.000   0.200   0.000    0.00
   3.720   23.06   -8.96   -2.21   0.000   0.200   0.000    0.00
   3.730   22.92   -8.13   -1.79   0.000   0.200   0.000    0.00
   3.740   22.60   -8.29   -1.39   0.000   0.200   0.000    0.00
   3.750   23.88   -8.78   -1.74   0.000   0.200   0.000    0.00
   3.760   24.04   -7.92   -1.84   0.000   0.200   0.000    0.00
   3.770   23.74   -7.07   -1.89   0.000   0.200   0.000    0.00
   3.780   23.97   -8.61   -1.62   0.000   0.200   0.000    0.00
   3.790   23.84   -9.58   -1.12   0.000   0.200   0.000    0.00
   3.800   23.77   -9.83   -1.04   0.000   0.200   0.000    0.00
   3.810   23.57   -9.33   -0.76   0.000   0.200   0.000    0.00
   3.820   23.38   -8.37   -0.28   0.000   0.200   0.000    0.00
   3.830   22.56   -8.41   -0.95   0.000   0.200   0.000    0.00
   3.840   22.51   -8.83   -1.46   0.000   0.200   0.000    0.00
   3.850   22.76   -9.59   -1.52   0.000   0.200   0.000    0.00
   3.860   22.73   -9.99   -1.25   0.000   0.200   0.000    0.00
   3.870   23.08  -10.19   -1.35   0.000   0.200   0.000    0.00
   3.880   23.38   -9.07   -1.50   0.000   0.200   0.000    0.00
   3.890   23.10   -7.08   -1.91   0.000   0.200   0.000    0.00
   3.900   22.79   -7.32   -2.00   0.000   0.200   0.000    0.00
   3.910   22.61   -6.62   -1.87   0.000   0.200   0.000    0.00
   3.920   23.02   -7.21   -1.64   0.000   0.200   0.000    0.00
   3.930   22.98   -6.28   -2.54   0.000   0.200   0.000    0.00
   3.940   22.75   -5.77   -2.30   0.000   0.200   0.000    0.00
   3.950   22.60   -6.12   -2.42   0.000   0.200   0.000    0.00
   3.960   22.40   -7.27   -2.51   0.000   0.200   0.000    0.00
   3.970   22.59   -7.96   -2.79   0.000   0.200   0.000    0.00
   3.980   22.88   -5.37   -2.17   0.000   0.200   0.000    0.00
   3.990   23.04   -4.35   -2.06   0.000   0.200   0.000    0.00
   4.000   23.11   -4.47   -1.73   0.000   0.200   0.000    0.00
   4.010   23.00   -5.69   -1.97   0.000   0.200   0.000    0.00
   4.020   23.00   -5.97   -1.71   0.000   0.200   0.000    0.00
   4.030   22.63   -5.50   -1.55   0.000   0.200   0.000    0.00
   4.040   22.37   -4.84   -1.69   0.000   0.200   0.000    0.00
   4.050   22.81   -5.93   -0.83   0.000   0.200   0.000    0.00
   4.060   22.89   -5.55   -0.91   0.000   0.200   0.000    0.00
   4.070   22.87   -6.15   -0.94   0.000   0.200   0.000    0.00
   4.080   23.13   -4.70   -1.10   0.000   0.200   0.000    0.00
   4.090   23.60   -4.53   -1.19   0.000   0.200   0.000    0.00
   4.100   23.12   -4.88   -1.11   0.000   0.200   0.000    0.00
   4.110   22.94   -4.27   -1.16   0.000   0.200   0.000    0.00
   4.120   22.71   -3.16   -1.04   0.000   0.200   0.000    0.00
   4.130   22.66   -3.04   -1.60   0.000   0.200   0.000    0.00
   4.140   22.89   -5.13   -1.50   0.000   0.200   0.000    0.00
   4.150   23.18   -6.60   -2.12   0.000   0.200   0.000    0.00
   4.160   23.37   -6.30   -1.99   0.000   0.200   0.000    0.00
   4.170   22.93   -7.69   -1.70   0.000   0.200   0.000    0.00
   4.180   22.98   -6.40   -2.16   0.000   0.200   0.000    0.00
   4.190   23.04   -6.36   -1.83   0.000   0.200   0.000    0.00
   4.200   23.20   -6.78   -1.59   0.000   0.200   0.000    0.00
   4.210   22.97   -4.98   -1.20   0.000   0.200   0.000    0.00
   4.220   23.05   -4.43   -0.58   0.000   0.200   0.000    0.00
   4.230   23.21   -5.14   -0.62   0.000   0.200   0.000    0.00
   4.240   23.91   -3.09   -1.07   0.000   0.200   0.000    0.00
   4.250   24.02   -2.40   -1.37   0.000   0.200   0.000    0.00
   4.260   23.90   -2.04   -0.95   0.000   0.200   0.000    0.00
   4.270   23.51   -1.05   -0.82   0.000   0.200   0.000    0.00
   4.280   23.32   -1.45   -1.07   0.000   0.200   0.000    0.00
   4.290   23.12   -1.85   -1.17   0.000   0.200   0.000    0.00
   4.300   23.24   -1.02   -1.31   0.000   0.200   0.000    0.00
   4.310   23.15   -0.22   -1.46   0.000   0.200   0.000    0.00
   4.320   22.75   -3.23   -1.33   0.000   0.200   0.000    0.00
   4.330   22.69   -2.69   -1.28   0.000   0.200   0.000    0.00
   4.340   22.88   -3.79   -0.97   0.000   0.200   0.000    0.00
   4.350   23.14   -3.22   -1.20   0.000   0.200   0.000    0.00
   4.360   23.08   -3.53   -0.98   0.000   0.200   0.000    0.00
   4.370   23.10   -3.17   -1.07   0.000   0.200   0.000    0.00
   4.380   22.96   -3.54   -1.20   0.000   0.200   0.000    0.00
   4.390   22.88   -5.33   -0.78   0.000   0.200   0.000    0.00
   4.400   22.84   -6.68   -1.10   0.000   0.200   0.000    0.00
   4.410   22.58   -5.49   -0.79   0.000   0.200   0.000    0.00
   4.420   23.31   -4.23   -0.53   0.000   0.200   0.000    0.00
   4.430   24.00   -5.35   -0.19   0.000   0.200   0.000    0.00
   4.440   24.00   -5.97   -0.27   0.000   0.200   0.000    0.00
   4.450   23.38   -7.26   -0.38   0.000   0.200   0.000    0.00
   4.460   23.53   -5.70   -0.39   0.000   0.200   0.000    0.00
   4.470   23.07   -5.52   -0.22   0.000   0.200   0.000    0.00
   4.480   22.55   -6.73    0.07   0.000   0.200   0.000    0.00
   4.490   22.68   -6.30   -0.67   0.000   0.200   0.000    0.00
   4.500   22.69   -6.45   -0.95   0.000   0.200   0.000    0.00
   4.510   22.43   -5.95   -1.34   0.000   0.200   0.000    0.00
   4.520   21.61   -5.43   -0.65   0.000   0.200   0.000    0.00
   4.530   22.34   -4.06   -0.12   0.000   0.200   0.000    0.00
   4.540   22.37   -4.86   -0.02   0.000   0.200   0.000    0.00