! This hub-height wind-speed file was generated by TurbSim (from OpenFAST--128-NOTFOUND) on 23-Aug-2023 at 09:41:11.
!
! The requested statistics for this data were:
!    Mean Total Wind Speed =   20.000 m/s
!    Turbulence Intensity  =   14.420%
!
!   Time  HorSpd  WndDir  VerSpd  HorShr  VerShr  LnVShr  GstSpd
!  (sec)   (m/s)   (deg)   (m/s)     (-)     (-)     (-)   (m/s)
   0.000   17.08   -5.58    0.96   0.000   0.200   0.000    0.00
   0.010   17.23   -8.00    1.21   0.000   0.200   0.000    0.00
   0.020   17.39   -8.87    1.22   0.000   0.200   0.000    0.00
   0.030   17.30   -9.52    1.17   0.000   0.200   0.000    0.00
   0.040   17.27   -6.95    1.05   0.000   0.200   0.000    0.00
   0.050   17.00   -6.35    0.86   0.000   0.200   0.000    0.00
   0.060   17.07   -5.60    1.31   0.000   0.200   0.000    0.00
   0.070   17.21   -5.96    1.01   0.000   0.200   0.000    0.00
   0.080   17.62   -7.01    1.02   0.000   0.200   0.000    0.00
   0.090   17.87   -5.47    1.38   0.000   0.200   0.000    0.00
   0.100   17.95   -4.93    1.73   0.000   0.200   0.000    0.00
   0.110   17.94   -4.64    1.89   0.000   0.200   0.000    0.00
   0.120   18.14   -6.16    1.60   0.000   0.200   0.000    0.00
   0.130   18.14   -5.46    1.32   0.000   0.200   0.000    0.00
   0.140   17.97   -6.13    1.53   0.000   0.200   0.000    0.00
   0.150   17.87   -5.58    0.75   0.000   0.200   0.000    0.00
   0.160   17.92   -4.87    0.84   0.000   0.200   0.000    0.00
   0.170   18.45   -3.06    0.72   0.000   0.200   0.000    0.00
   0.180   18.70   -3.55    0.98   0.000   0.200   0.000    0.00
   0.190   18.31   -3.98    1.45   0.000   0.200   0.000    0.00
   0.200   18.32   -5.25    2.01   0.000   0.200   0.000    0.00
   0.210   18.10   -5.80    2.15   0.000   0.200   0.000    0.00
   0.220   17.96   -4.50    1.79   0.000   0.200   0.000    0.00
   0.230   17.57   -5.01    1.72   0.000   0.200   0.000    0.00
   0.240   17.04   -2.08    1.20   0.000   0.200   0.000    0.00
   0.250   17.45   -1.60    1.45   0.000   0.200   0.000    0.00
   0.260   17.08    0.19    1.61   0.000   0.200   0.000    0.00
   0.270   17.55    2.68    1.55   0.000   0.200   0.000    0.00
   0.280   17.07    2.77    1.64   0.000   0.200   0.000    0.00
   0.290   17.15    0.96    1.88   0.000   0.200   0.000    0.00
   0.300   17.43    2.20    1.39   0.000   0.200   0.000    0.00
   0.310   17.01    3.21    0.82   0.000   0.200   0.000    0.00
   0.320   16.91    5.19    1.10   0.000   0.200   0.000    0.00
   0.330   17.42    5.99    1.86   0.000   0.200   0.000    0.00
   0.340   17.76    6.08    2.15   0.000   0.200   0.000    0.00
   0.350   17.64    6.80    2.34   0.000   0.200   0.000    0.00
   0.360   17.06    7.43    2.74   0.000   0.200   0.000    0.00
   0.370   17.38    6.26    2.69   0.000   0.200   0.000    0.00
   0.380   17.69    6.31    3.14   0.000   0.200   0.000    0.00
   0.390   17.20    6.10    2.74   0.000   0.200   0.000    0.00
   0.400   17.31    6.56    3.06   0.000   0.200   0.000    0.00
   0.410   17.51    6.81    3.21   0.000   0.200   0.000    0.00
   0.420   17.11    7.10    3.53   0.000   0.200   0.000    0.00
   0.430   17.46    6.11    3.26   0.000   0.200   0.000    0.00
   0.440   17.59    6.96    3.11   0.000   0.200   0.000    0.00
   0.450   17.37    6.12    2.46   0.000   0.200   0.000    0.00
   0.460   17.45    5.08    2.48   0.000   0.200   0.000    0.00
   0.470   16.97    6.58    2.75   0.000   0.200   0.000    0.00
   0.480   17.25    4.36    3.00   0.000   0.200   0.000    0.00
   0.490   16.96    3.90    3.07   0.000   0.200   0.000    0.00
   0.500   16.58    3.62    3.32   0.000   0.200   0.000    0.00
   0.510   16.35    3.89    2.86   0.000   0.200   0.000    0.00
   0.520   16.25    4.76    2.98   0.000   0.200   0.000    0.00
   0.530   16.30    2.41    3.15   0.000   0.200   0.000    0.00
   0.540   16.02    1.91    3.18   0.000   0.200   0.000    0.00
   0.550   15.53    4.14    2.94   0.000   0.200   0.000    0.00
   0.560   15.48    5.56    3.64   0.000   0.200   0.000    0.00
   0.570   15.46    6.66    4.05   0.000   0.200   0.000    0.00
   0.580   15.30    6.84    4.07   0.000   0.200   0.000    0.00
   0.590   15.20    5.44    3.35   0.000   0.200   0.000    0.00
   0.600   15.14    6.17    3.34   0.000   0.200   0.000    0.00
   0.610   15.13    4.55    3.30   0.000   0.200   0.000    0.00
   0.620   14.94    1.91    3.56   0.000   0.200   0.000    0.00
   0.630   15.69    2.43    3.18   0.000   0.200   0.000    0.00
   0.640   15.08    1.03    3.07   0.000   0.200   0.000    0.00
   0.650   14.83    0.61    3.02   0.000   0.200   0.000    0.00
   0.660   15.08    1.91    2.75   0.000   0.200   0.000    0.00
   0.670   15.01    3.82    3.06   0.000   0.200   0.000    0.00
   0.680   15.29    1.17    3.83   0.000   0.200   0.000    0.00
   0.690   15.34    2.64    3.61   0.000   0.200   0.000    0.00
   0.700   15.82    3.88    3.68   0.000   0.200   0.000    0.00
   0.710   16.23    3.46    3.13   0.000   0.200   0.000    0.00
   0.720   16.54    2.51    3.63   0.000   0.200   0.000    0.00
   0.730   16.90    1.90    4.06   0.000   0.200   0.000    0.00
   0.740   16.59    1.32    4.40   0.000   0.200   0.000    0.00
   0.750   17.09    1.90    4.06   0.000   0.200   0.000    0.00
   0.760   17.14    1.21    4.07   0.000   0.200   0.000    0.00
   0.770   17.20   -0.48    3.40   0.000   0.200   0.000    0.00
   0.780   17.52    1.52    3.49   0.000   0.200   0.000    0.00
   0.790   17.62    1.61    3.37   0.000   0.200   0.000    0.00
   0.800   17.85    2.97    3.23   0.000   0.200   0.000    0.00
   0.810   17.72    1.58    3.99   0.000   0.200   0.000    0.00
   0.820   17.58    1.82    4.39   0.000   0.200   0.000    0.00
   0.830   17.66   -1.63    4.34   0.000   0.200   0.000    0.00
   0.840   17.25   -1.99    4.15   0.000   0.200   0.000    0.00
   0.850   16.88   -0.36    3.97   0.000   0.200   0.000    0.00
   0.860   17.04   -1.72    4.02   0.000   0.200   0.000    0.00
   0.870   16.97   -2.00    4.18   0.000   0.200   0.000    0.00
   0.880   17.37   -2.00    4.13   0.000   0.200   0.000    0.00
   0.890   17.18   -2.39    4.31   0.000   0.200   0.000    0.00
   0.900   17.41   -3.78    4.42   0.000   0.200   0.000    0.00
   0.910   17.84   -4.20    4.31   0.000   0.200   0.000    0.00
   0.920   17.85   -4.27    4.05   0.000   0.200   0.000    0.00
   0.930   17.53   -4.51    3.77   0.000   0.200   0.000    0.00
   0.940   17.43   -5.66    4.38   0.000   0.200   0.000    0.00
   0.950   17.26   -5.61    4.87   0.000   0.200   0.000    0.00
   0.960   17.04   -7.25    4.74   0.000   0.200   0.000    0.00
   0.970   16.59   -7.65    4.49   0.000   0.200   0.000    0.00
   0.980   16.92   -8.40    4.29   0.000   0.200   0.000    0.00
   0.990   16.87   -6.07    3.29   0.000   0.200   0.000    0.00
   1.000   17.21   -7.31    3.47   0.000   0.200   0.000    0.00
   1.010   17.43   -5.97    3.49   0.000   0.200   0.000    0.00
   1.020   17.33   -6.87    3.73   0.000   0.200   0.000    0.00
   1.030   17.49   -7.79    3.71   0.000   0.200   0.000    0.00
   1.040   18.29   -7.93    3.08   0.000   0.200   0.000    0.00
   1.050   18.29   -5.63    3.18   0.000   0.200   0.000    0.00
   1.060   17.77   -5.79    2.69   0.000   0.200   0.000    0.00
   1.070   17.62   -5.41    2.86   0.000   0.200   0.000    0.00
   1.080   17.67   -4.40    3.04   0.000   0.200   0.000    0.00
   1.090   18.06   -6.04    2.54   0.000   0.200   0.000    0.00
   1.100   17.82   -7.71    2.99   0.000   0.200   0.000    0.00
   1.110   18.14   -7.87    2.96   0.000   0.200   0.000    0.00
   1.120   18.16   -8.48    2.44   0.000   0.200   0.000    0.00
   1.130   18.52   -7.85    2.04   0.000   0.200   0.000    0.00
   1.140   18.40   -6.32    2.69   0.000   0.200   0.000    0.00
   1.150   18.26   -6.86    2.97   0.000   0.200   0.000    0.00
   1.160   18.39   -8.16    3.43   0.000   0.200   0.000    0.00
   1.170   18.56   -8.02    2.98   0.000   0.200   0.000    0.00
   1.180   19.06   -7.08    3.17   0.000   0.200   0.000    0.00
   1.190   18.77   -8.09    2.38   0.000   0.200   0.000    0.00
   1.200   18.66   -7.74    1.96   0.000   0.200   0.000    0.00
   1.210   18.31   -6.70    2.01   0.000   0.200   0.000    0.00
   1.220   18.20   -6.24    2.04   0.000   0.200   0.000    0.00
   1.230   17.89   -6.49    2.53   0.000   0.200   0.000    0.00
   1.240   17.45   -7.48    3.18   0.000   0.200   0.000    0.00
   1.250   17.58   -7.23    2.82   0.000   0.200   0.000    0.00
   1.260   17.55   -6.76    3.09   0.000   0.200   0.000    0.00
   1.270   17.79   -9.30    3.14   0.000   0.200   0.000    0.00
   1.280   18.06   -9.33    3.64   0.000   0.200   0.000    0.00
   1.290   17.82   -9.00    3.23   0.000   0.200   0.000    0.00
   1.300   17.93   -9.24    3.41   0.000   0.200   0.000    0.00
   1.310   17.51   -9.00    3.22   0.000   0.200   0.000    0.00
   1.320   17.16  -10.85    3.54   0.000   0.200   0.000    0.00
   1.330   17.24   -9.67    3.60   0.000   0.200   0.000    0.00
   1.340   17.72  -10.65    3.90   0.000   0.200   0.000    0.00
   1.350   18.18  -11.70    3.89   0.000   0.200   0.000    0.00
   1.360   17.94  -11.83    3.06   0.000   0.200   0.000    0.00
   1.370   17.56  -12.25    3.28   0.000   0.200   0.000    0.00
   1.380   17.81  -12.07    3.58   0.000   0.200   0.000    0.00
   1.390   17.78  -13.56    3.86   0.000   0.200   0.000    0.00
   1.400   17.96  -13.19    5.05   0.000   0.200   0.000    0.00
   1.410   17.35  -13.38    5.65   0.000   0.200   0.000    0.00
   1.420   17.43  -14.45    4.83   0.000   0.200   0.000    0.00
   1.430   17.79  -13.33    4.88   0.000   0.200   0.000    0.00
   1.440   17.97  -12.95    4.91   0.000   0.200   0.000    0.00
   1.450   18.32  -13.85    5.40   0.000   0.200   0.000    0.00
   1.460   18.05  -13.53    5.32   0.000   0.200   0.000    0.00
   1.470   18.66  -12.76    5.44   0.000   0.200   0.000    0.00
   1.480   19.00  -12.23    5.44   0.000   0.200   0.000    0.00
   1.490   18.85  -10.78    5.69   0.000   0.200   0.000    0.00
   1.500   19.42   -9.32    5.74   0.000   0.200   0.000    0.00
   1.510   19.28   -9.31    5.18   0.000   0.200   0.000    0.00
   1.520   19.22   -9.12    5.11   0.000   0.200   0.000    0.00
   1.530   19.04   -8.97    5.45   0.000   0.200   0.000    0.00
   1.540   19.37   -8.94    4.99   0.000   0.200   0.000    0.00
   1.550   19.55   -9.81    5.18   0.000   0.200   0.000    0.00
   1.560   18.99  -11.28    5.17   0.000   0.200   0.000    0.00
   1.570   19.06   -9.09    4.61   0.000   0.200   0.000    0.00
   1.580   19.27   -9.93    4.28   0.000   0.200   0.000    0.00
   1.590   19.16  -11.18    3.75   0.000   0.200   0.000    0.00
   1.600   19.28  -12.86    3.44   0.000   0.200   0.000    0.00
   1.610   19.28  -12.13    3.81   0.000   0.200   0.000    0.00
   1.620   19.20  -11.52    3.73   0.000   0.200   0.000    0.00
   1.630   19.42  -11.89    3.19   0.000   0.200   0.000    0.00
   1.640   19.51  -10.15    2.86   0.000   0.200   0.000    0.00
   1.650   19.50   -8.86    3.48   0.000   0.200   0.000    0.00
   1.660   19.65   -8.50    4.03   0.000   0.200   0.000    0.00
   1.670   19.58   -9.09    4.20   0.000   0.200   0.000    0.00
   1.680   19.75   -8.58    4.63   0.000   0.200   0.000    0.00
   1.690   19.50   -7.87    4.83   0.000   0.200   0.000    0.00
   1.700   19.62   -9.19    4.90   0.000   0.200   0.000    0.00
   1.710   19.51  -10.93    4.68   0.000   0.200   0.000    0.00
   1.720   19.55   -9.57    4.79   0.000   0.200   0.000    0.00
   1.730   19.78   -7.14    4.56   0.000   0.200   0.000    0.00
   1.740   20.06   -6.06    4.87   0.000   0.200   0.000    0.00
   1.750   19.85   -5.74    5.15   0.000   0.200   0.000    0.00
   1.760   20.00   -4.31    4.86   0.000   0.200   0.000    0.00
   1.770   20.11   -4.16    4.91   0.000   0.200   0.000    0.00
   1.780   19.61   -4.41    5.12   0.000   0.200   0.000    0.00
   1.790   19.95   -3.24    5.16   0.000   0.200   0.000    0.00
   1.800   20.69   -4.78    4.69   0.000   0.200   0.000    0.00
   1.810   20.35   -3.42    4.93   0.000   0.200   0.000    0.00
   1.820   20.00   -3.91    5.72   0.000   0.200   0.000    0.00
   1.830   20.09   -5.06    4.94   0.000   0.200   0.000    0.00
   1.840   19.86   -5.30    4.51   0.000   0.200   0.000    0.00
   1.850   19.37   -5.65    4.28   0.000   0.200   0.000    0.00
   1.860   19.72   -6.79    3.57   0.000   0.200   0.000    0.00
   1.870   19.79   -6.20    3.75   0.000   0.200   0.000    0.00
   1.880   19.81   -5.50    3.91   0.000   0.200   0.000    0.00
   1.890   19.44   -4.71    3.72   0.000   0.200   0.000    0.00
   1.900   20.08   -5.24    3.55   0.000   0.200   0.000    0.00
   1.910   20.35   -4.05    3.34   0.000   0.200   0.000    0.00
   1.920   19.93   -4.41    3.43   0.000   0.200   0.000    0.00
   1.930   19.87   -3.91    3.55   0.000   0.200   0.000    0.00
   1.940   20.35   -4.53    3.68   0.000   0.200   0.000    0.00
   1.950   20.15   -5.47    3.49   0.000   0.200   0.000    0.00
   1.960   19.80   -6.53    3.28   0.000   0.200   0.000    0.00
   1.970   19.41   -6.41    3.48   0.000   0.200   0.000    0.00
   1.980   18.82   -6.24    3.61   0.000   0.200   0.000    0.00
   1.990   19.08   -5.17    4.29   0.000   0.200   0.000    0.00
   2.000   19.16   -3.44    4.14   0.000   0.200   0.000    0.00
   2.010   18.48   -1.72    4.69   0.000   0.200   0.000    0.00
   2.020   18.27   -1.07    4.90   0.000   0.200   0.000    0.00
   2.030   18.71    0.10    4.91   0.000   0.200   0.000    0.00
   2.040   19.13   -1.19    4.79   0.000   0.200   0.000    0.00
   2.050   19.21   -2.18    4.89   0.000   0.200   0.000    0.00
   2.060   19.53   -3.62    4.78   0.000   0.200   0.000    0.00
   2.070   19.84   -3.35    5.27   0.000   0.200   0.000    0.00
   2.080   19.32   -3.02    5.11   0.000   0.200   0.000    0.00
   2.090   19.46   -2.19    5.09   0.000   0.200   0.000    0.00
   2.100   19.95   -3.16    5.23   0.000   0.200   0.000    0.00
   2.110   19.75   -5.08    4.99   0.000   0.200   0.000    0.00
   2.120   19.83   -4.86    4.20   0.000   0.200   0.000    0.00
   2.130   19.93   -5.49    4.60   0.000   0.200   0.000    0.00
   2.140   20.19   -7.09    4.48   0.000   0.200   0.000    0.00
   2.150   20.08   -7.11    5.04   0.000   0.200   0.000    0.00
   2.160   20.21   -6.03    5.58   0.000   0.200   0.000    0.00
   2.170   20.48   -5.30    5.86   0.000   0.200   0.000    0.00
   2.180   20.25   -2.93    5.53   0.000   0.200   0.000    0.00
   2.190   19.97   -4.00    5.35   0.000   0.200   0.000    0.00
   2.200   19.60   -4.87    6.04   0.000   0.200   0.000    0.00
   2.210   20.35   -5.65    6.13   0.000   0.200   0.000    0.00
   2.220   20.16   -6.31    5.99   0.000   0.200   0.000    0.00
   2.230   20.33   -8.25    6.09   0.000   0.200   0.000    0.00
   2.240   20.28   -7.35    6.10   0.000   0.200   0.000    0.00
   2.250   20.34   -8.32    5.29   0.000   0.200   0.000    0.00
   2.260   19.98   -7.93    4.62   0.000   0.200   0.000    0.00
   2.270   19.89   -7.19    5.23   0.000   0.200   0.000    0.00
   2.280   19.99   -6.69    5.83   0.000   0.200   0.000    0.00
   2.290   20.13   -5.93    5.57   0.000   0.200   0.000    0.00
   2.300   19.99   -5.36    5.51   0.000   0.200   0.000    0.00
   2.310   20.25   -4.77    5.97   0.000   0.200   0.000    0.00
   2.320   19.98   -5.52    6.11   0.000   0.200   0.000    0.00
   2.330   19.73   -6.50    5.50   0.000   0.200   0.000    0.00
   2.340   19.36   -7.59    6.15   0.000   0.200   0.000    0.00
   2.350   19.53   -8.87    6.37   0.000   0.200   0.000    0.00
   2.360   19.31   -8.92    6.38   0.000   0.200   0.000    0.00
   2.370   19.21   -9.17    6.03   0.000   0.200   0.000    0.00
   2.380   19.06  -10.36    5.98   0.000   0.200   0.000    0.00
   2.390   18.90   -9.08    6.18   0.000   0.200   0.000    0.00
   2.400   18.96   -7.78    5.52   0.000   0.200   0.000    0.00
   2.410   18.52   -7.49    5.55   0.000   0.200   0.000    0.00
   2.420   18.84   -7.39    5.67   0.000   0.200   0.000    0.00
   2.430   18.74   -7.94    5.28   0.000   0.200   0.000    0.00
   2.440   18.58   -6.16    5.29   0.000   0.200   0.000    0.00
   2.450   18.61   -5.68    5.58   0.000   0.200   0.000    0.00
   2.460   19.07   -6.10    5.41   0.000   0.200   0.000    0.00
   2.470   18.90   -5.80    5.28   0.000   0.200   0.000    0.00
   2.480   18.93   -6.80    5.14   0.000   0.200   0.000    0.00
   2.490   18.94   -6.45    5.76   0.000   0.200   0.000    0.00
   2.500   18.98   -6.58    6.12   0.000   0.200   0.000    0.00
   2.510   18.92   -7.17    5.33   0.000   0.200   0.000    0.00
   2.520   18.61   -5.84    5.09   0.000   0.200   0.000    0.00
   2.530   18.76   -7.19    5.29   0.000   0.200   0.000    0.00
   2.540   19.25   -5.98    5.33   0.000   0.200   0.000    0.00
   2.550   19.67   -7.31    5.47   0.000   0.200   0.000    0.00
   2.560   19.32   -7.76    5.64   0.000   0.200   0.000    0.00
   2.570   18.10   -7.47    5.23   0.000   0.200   0.000    0.00
   2.580   18.32   -6.52    6.29   0.000   0.200   0.000    0.00
   2.590   18.70   -6.45    6.11   0.000   0.200   0.000    0.00
   2.600   18.50   -5.37    5.58   0.000   0.200   0.000    0.00
   2.610   18.40   -6.56    4.99   0.000   0.200   0.000    0.00
   2.620   18.91   -4.33    5.24   0.000   0.200   0.000    0.00
   2.630   18.68   -3.24    4.87   0.000   0.200   0.000    0.00
   2.640   19.25   -3.52    4.87   0.000   0.200   0.000    0.00
   2.650   18.95   -3.81    5.22   0.000   0.200   0.000    0.00
   2.660   19.15   -5.86    4.91   0.000   0.200   0.000    0.00
   2.670   19.12   -4.26    4.29   0.000   0.200   0.000    0.00
   2.680   18.86   -4.30    4.38   0.000   0.200   0.000    0.00
   2.690   19.14   -3.76    4.35   0.000   0.200   0.000    0.00
   2.700   18.13   -2.94    3.98   0.000   0.200   0.000    0.00
   2.710   17.77   -3.16    3.99   0.000   0.200   0.000    0.00
   2.720   17.68   -1.58    3.96   0.000   0.200   0.000    0.00
   2.730   17.97   -3.24    3.47   0.000   0.200   0.000    0.00
   2.740   17.74   -2.46    3.72   0.000   0.200   0.000    0.00
   2.750   18.62   -3.72    4.19   0.000   0.200   0.000    0.00
   2.760   19.30   -3.07    4.42   0.000   0.200   0.000    0.00
   2.770   19.00   -4.19    4.32   0.000   0.200   0.000    0.00
   2.780   19.21   -4.54    3.48   0.000   0.200   0.000    0.00
   2.790   19.15   -3.53    3.97   0.000   0.200   0.000    0.00
   2.800   19.53   -3.81    3.58   0.000   0.200   0.000    0.00
   2.810   19.24   -3.16    3.89   0.000   0.200   0.000    0.00
   2.820   19.09   -2.70    3.84   0.000   0.200   0.000    0.00
   2.830   18.82   -4.06    4.43   0.000   0.200   0.000    0.00
   2.840   18.71   -5.89    4.96   0.000   0.200   0.000    0.00
   2.850   19.70   -6.51    5.22   0.000   0.200   0.000    0.00
   2.860   19.28   -4.92    5.24   0.000   0.200   0.000    0.00
   2.870   18.86   -6.98    5.20   0.000   0.200   0.000    0.00
   2.880   18.53   -6.79    4.86   0.000   0.200   0.000    0.00
   2.890   18.93   -7.92    4.67   0.000   0.200   0.000    0.00
   2.900   18.75   -6.25    4.44   0.000   0.200   0.000    0.00
   2.910   18.38   -3.33    4.40   0.000   0.200   0.000    0.00
   2.920   18.81   -1.65    4.06   0.000   0.200   0.000    0.00
   2.930   18.54   -2.06    3.91   0.000   0.200   0.000    0.00
   2.940   18.34   -3.21    4.16   0.000   0.200   0.000    0.00
   2.950   18.41   -1.30    4.52   0.000   0.200   0.000    0.00
   2.960   18.95   -1.85    4.29   0.000   0.200   0.000    0.00
   2.970   18.72   -1.61    4.30   0.000   0.200   0.000    0.00
   2.980   18.57   -3.05    4.41   0.000   0.200   0.000    0.00
   2.990   19.26   -4.05    4.64   0.000   0.200   0.000    0.00
   3.000   18.63   -2.94    4.69   0.000   0.200   0.000    0.00
   3.010   18.76   -2.89    4.57   0.000   0.200   0.000    0.00
   3.020   18.15   -3.81    4.62   0.000   0.200   0.000    0.00
   3.030   18.36   -1.60    4.60   0.000   0.200   0.000    0.00
   3.040   18.41   -1.28    4.29   0.000   0.200   0.000    0.00
   3.050   18.16    0.28    4.20   0.000   0.200   0.000    0.00
   3.060   18.24    0.29    4.50   0.000   0.200   0.000    0.00
   3.070   18.50    0.58    4.98   0.000   0.200   0.000    0.00
   3.080   18.20    0.55    4.46   0.000   0.200   0.000    0.00
   3.090   18.25    2.06    4.48   0.000   0.200   0.000    0.00
   3.100   18.27    3.45    4.50   0.000   0.200   0.000    0.00
   3.110   18.71    4.68    4.10   0.000   0.200   0.000    0.00
   3.120   18.58    5.56    4.35   0.000   0.200   0.000    0.00
   3.130   18.26    3.62    4.79   0.000   0.200   0.000    0.00
   3.140   18.23    1.83    4.70   0.000   0.200   0.000    0.00
   3.150   18.23    2.09    4.69   0.000   0.200   0.000    0.00
   3.160   18.37    1.52    4.84   0.000   0.200   0.000    0.00
   3.170   18.35    1.13    4.52   0.000   0.200   0.000    0.00
   3.180   18.43    1.12    4.46   0.000   0.200   0.000    0.00
   3.190   18.15    0.58    3.64   0.000   0.200   0.000    0.00
   3.200   18.45   -0.84    4.48   0.000   0.200   0.000    0.00
   3.210   18.27   -0.16    4.94   0.000   0.200   0.000    0.00
   3.220   17.85   -1.42    4.62   0.000   0.200   0.000    0.00
   3.230   17.82   -3.59    4.61   0.000   0.200   0.000    0.00
   3.240   17.63   -2.79    3.88   0.000   0.200   0.000    0.00
   3.250   17.66   -0.21    3.14   0.000   0.200   0.000    0.00
   3.260   17.82    0.56    3.01   0.000   0.200   0.000    0.00
   3.270   17.33   -0.54    3.16   0.000   0.200   0.000    0.00
   3.280   17.22   -0.18    3.59   0.000   0.200   0.000    0.00
   3.290   17.05    0.99    3.69   0.000   0.200   0.000    0.00
   3.300   17.02    1.61    4.17   0.000   0.200   0.000    0.00
   3.310   17.02    3.31    3.94   0.000   0.200   0.000    0.00
   3.320   16.70    3.75    3.55   0.000   0.200   0.000    0.00
   3.330   16.55   -0.36    4.08   0.000   0.200   0.000    0.00
   3.340   16.93    1.97    3.98   0.000   0.200   0.000    0.00
   3.350   17.11    3.86    4.08   0.000   0.200   0.000    0.00
   3.360   17.17    2.26    4.39   0.000   0.200   0.000    0.00
   3.370   17.51    0.95    4.08   0.000   0.200   0.000    0.00
   3.380   17.92    0.38    4.50   0.000   0.200   0.000    0.00
   3.390   17.50    1.41    3.91   0.000   0.200   0.000    0.00
   3.400   17.68    0.20    2.96   0.000   0.200   0.000    0.00
   3.410   17.53   -0.29    3.68   0.000   0.200   0.000    0.00
   3.420   18.02   -2.54    3.79   0.000   0.200   0.000    0.00
   3.430   18.33   -3.98    3.93   0.000   0.200   0.000    0.00
   3.440   17.81   -4.23    3.91   0.000   0.200   0.000    0.00
   3.450   17.95   -3.08    4.32   0.000   0.200   0.000    0.00
   3.460   17.92   -3.54    4.07   0.000   0.200   0.000    0.00
   3.470   17.92   -3.64    3.80   0.000   0.200   0.000    0.00
   3.480   17.42   -2.44    4.09   0.000   0.200   0.000    0.00
   3.490   17.41   -2.63    3.54   0.000   0.200   0.000    0.00
   3.500   17.59   -2.25    3.10   0.000   0.200   0.000    0.00
   3.510   17.81   -2.24    4.05   0.000   0.200   0.000    0.00
   3.520   17.63   -2.95    4.58   0.000   0.200   0.000    0.00
   3.530   17.35   -4.55    4.12   0.000   0.200   0.000    0.00
   3.540   17.84   -5.10    3.95   0.000   0.200   0.000    0.00
   3.550   18.13   -4.80    4.45   0.000   0.200   0.000    0.00
   3.560   18.33   -5.88    4.78   0.000   0.200   0.000    0.00
   3.570   18.31   -5.14    4.71   0.000   0.200   0.000    0.00
   3.580   18.14   -6.85    5.01   0.000   0.200   0.000    0.00
   3.590   18.22   -6.59    5.14   0.000   0.200   0.000    0.00
   3.600   18.24   -5.05    5.57   0.000   0.200   0.000    0.00
   3.610   18.07   -5.32    5.40   0.000   0.200   0.000    0.00
   3.620   17.82   -6.13    5.39   0.000   0.200   0.000    0.00
   3.630   17.49   -4.70    5.35   0.000   0.200   0.000    0.00
   3.640   17.38   -3.62    5.34   0.000   0.200   0.000    0.00
   3.650   17.42   -3.57    4.45   0.000   0.200   0.000    0.00
   3.660   17.53   -2.93    4.15   0.000   0.200   0.000    0.00
   3.670   17.46   -2.44    3.88   0.000   0.200   0.000    0.00
   3.680   17.60   -2.38    3.89   0.000   0.200   0.000    0.00
   3.690   17.66   -0.06    3.51   0.000   0.200   0.000    0.00
   3.700   17.71   -1.07    3.69   0.000   0.200   0.000    0.00
   3.710   17.47   -3.36    3.41   0.000   0.200   0.000    0.00
   3.720   17.93   -0.37    2.51   0.000   0.200   0.000    0.00
   3.730   17.83    0.23    2.81   0.000   0.200   0.000    0.00
   3.740   17.55    0.77    3.40   0.000   0.200   0.000    0.00
   3.750   17.35   -1.73    3.51   0.000   0.200   0.000    0.00
   3.760   17.80   -1.23    3.35   0.000   0.200   0.000    0.00
   3.770   17.66   -2.22    2.73   0.000   0.200   0.000    0.00
   3.780   17.42   -1.37    3.30   0.000   0.200   0.000    0.00
   3.790   17.34   -2.27    3.11   0.000   0.200   0.000    0.00
   3.800   18.08   -1.34    2.87   0.000   0.200   0.000    0.00
   3.810   17.81   -2.35    3.69   0.000   0.200   0.000    0.00
   3.820   17.94   -3.56    3.57   0.000   0.200   0.000    0.00
   3.830   17.59   -2.37    4.17   0.000   0.200   0.000    0.00
   3.840   17.26   -2.85    4.18   0.000   0.200   0.000    0.00
   3.850   17.50   -3.81    4.68   0.000   0.200   0.000    0.00
   3.860   17.75   -2.79    4.94   0.000   0.200   0.000    0.00
   3.870   17.91   -4.27    4.41   0.000   0.200   0.000    0.00
   3.880   17.92   -4.47    4.52   0.000   0.200   0.000    0.00
   3.890   18.62   -4.57    4.11   0.000   0.200   0.000    0.00
   3.900   18.53   -2.67    3.67   0.000   0.200   0.000    0.00
   3.910   18.36   -3.44    3.86   0.000   0.200   0.000    0.00
   3.920   18.33   -3.43    4.44   0.000   0.200   0.000    0.00
   3.930   18.58   -2.44    4.04   0.000   0.200   0.000    0.00
   3.940   18.93   -2.52    3.53   0.000   0.200   0.000    0.00
   3.950   18.62   -1.91    3.45   0.000   0.200   0.000    0.00
   3.960   18.96   -1.50    3.30   0.000   0.200   0.000    0.00
   3.970   18.76   -1.51    3.39   0.000   0.200   0.000    0.00
   3.980   18.54   -1.56    3.67   0.000   0.200   0.000    0.00
   3.990   18.27   -0.73    3.10   0.000   0.200   0.000    0.00
   4.000   18.12   -1.97    3.40   0.000   0.200   0.000    0.00
   4.010   18.08   -3.21    3.26   0.000   0.200   0.000    0.00
   4.020   18.00   -1.31    3.57   0.000   0.200   0.000    0.00
   4.030   18.58   -0.22    3.72   0.000   0.200   0.000    0.00
   4.040   18.42   -0.34    2.91   0.000   0.200   0.000    0.00
   4.050   18.55    0.41    2.95   0.000   0.200   0.000    0.00
   4.060   18.31    1.18    3.05   0.000   0.200   0.000    0.00
   4.070   18.24    0.42    3.11   0.000   0.200   0.000    0.00
   4.080   18.02    1.78    3.15   0.000   0.200   0.000    0.00
   4.090   18.20    1.85    3.42   0.000   0.200   0.000    0.00
   4.100   18.05    1.47    3.32   0.000   0.200   0.000    0.00
   4.110   18.39    1.58    3.32   0.000   0.200   0.000    0.00
   4.120   18.53    0.12    2.77   0.000   0.200   0.000    0.00
   4.130   18.22    2.14    2.89   0.000   0.200   0.000    0.00
   4.140   17.75    2.44    2.78   0.000   0.200   0.000    0.00
   4.150   17.55    1.57    2.33   0.000   0.200   0.000    0.00
   4.160   17.26    1.98    2.41   0.000   0.200   0.000    0.00
   4.170   16.99    3.57    1.96   0.000   0.200   0.000    0.00
   4.180   17.40    3.72    1.98   0.000   0.200   0.000    0.00
   4.190   17.33    5.22    2.35   0.000   0.200   0.000    0.00
   4.200   17.54    2.04    2.78   0.000   0.200   0.000    0.00
   4.210   17.84    1.50    2.16   0.000   0.200   0.000    0.00
   4.220   17.77   -0.29    1.68   0.000   0.200   0.000    0.00
   4.230   17.52    1.23    1.65   0.000   0.200   0.000    0.00
   4.240   16.97    1.17    1.54   0.000   0.200   0.000    0.00
   4.250   16.69    0.41    2.31   0.000   0.200   0.000    0.00
   4.260   16.53    2.26    2.38   0.000   0.200   0.000    0.00
   4.270   16.45    2.71    1.82   0.000   0.200   0.000    0.00
   4.280   16.54    1.85    1.70   0.000   0.200   0.000    0.00
   4.290   16.14    1.56    1.93   0.000   0.200   0.000    0.00
   4.300   17.21   -0.17    1.80   0.000   0.200   0.000    0.00
   4.310   17.73    1.62    1.99   0.000   0.200   0.000    0.00
   4.320   17.71    1.59    2.25   0.000   0.200   0.000    0.00
   4.330   17.38   -0.75    2.27   0.000   0.200   0.000    0.00
   4.340   17.01   -0.23    1.61   0.000   0.200   0.000    0.00
   4.350   17.36    0.04    1.12   0.000   0.200   0.000    0.00
   4.360   17.20    1.76    1.74   0.000   0.200   0.000    0.00
   4.370   17.17    0.76    2.57   0.000   0.200   0.000    0.00
   4.380   17.28    0.97    2.80   0.000   0.200   0.000    0.00
   4.390   16.90    1.97    2.97   0.000   0.200   0.000    0.00
   4.400   16.58    5.96    2.82   0.000   0.200   0.000    0.00
   4.410   16.26    4.74    2.44   0.000   0.200   0.000    0.00
   4.420   17.09    3.84    2.44   0.000   0.200   0.000    0.00
   4.430   18.05    1.01    2.40   0.000   0.200   0.000    0.00
   4.440   17.60    1.34    2.68   0.000   0.200   0.000    0.00
   4.450   17.48   -0.12    2.62   0.000   0.200   0.000    0.00
   4.460   17.77   -1.16    2.64   0.000   0.200   0.000    0.00
   4.470   17.69   -0.10    2.78   0.000   0.200   0.000    0.00
   4.480   17.94    1.18    2.62   0.000   0.200   0.000    0.00
   4.490   18.19   -1.27    3.45   0.000   0.200   0.000    0.00
   4.500   17.55   -0.95    3.47   0.000   0.200   0.000    0.00
   4.510   18.25   -0.65    3.34   0.000   0.200   0.000    0.00
   4.520   18.33   -0.14    3.96   0.000   0.200   0.000    0.00
   4.530   18.34    0.76    3.68   0.000   0.200   0.000    0.00
   4.540   18.60    1.84    3.28   0.000   0.200   0.000    0.00