! This hub-height wind-speed file was generated by TurbSim (from OpenFAST--128-NOTFOUND) on 23-Aug-2023 at 09:41:11.
!
! The requested statistics for this data were:
!    Mean Total Wind Speed =   20.000 m/s
!    Turbulence Intensity  =   14.420%
!
!   Time  HorSpd  WndDir  VerSpd  HorShr  VerShr  LnVShr  GstSpd
!  (sec)   (m/s)   (deg)   (m/s)     (-)     (-)     (-)   (m/s)
   0.000   16.48   19.20    3.94   0.000   0.200   0.000    0.00
   0.010   16.46   20.53    3.76   0.000   0.200   0.000    0.00
   0.020   16.06   18.35    3.33   0.000   0.200   0.000    0.00
   0.030   16.26   16.71    3.19   0.000   0.200   0.000    0.00
   0.040   15.95   14.05    3.01   0.000   0.200   0.000    0.00
   0.050   15.81   13.42    2.98   0.000   0.200   0.000    0.00
   0.060   15.64   11.53    2.86   0.000   0.200   0.000    0.00
   0.070   16.19   13.59    2.40   0.000   0.200   0.000    0.00
   0.080   16.35   14.49    2.44   0.000   0.200   0.000    0.00
   0.090   16.36   12.48    2.75   0.000   0.200   0.000    0.00
   0.100   16.71   11.37    3.29   0.000   0.200   0.000    0.00
   0.110   17.13   13.16    3.01   0.000   0.200   0.000    0.00
   0.120   16.78   12.93    3.61   0.000   0.200   0.000    0.00
   0.130   16.61   11.76    4.49   0.000   0.200   0.000    0.00
   0.140   16.48   10.41    4.33   0.000   0.200   0.000    0.00
   0.150   16.54   11.25    4.19   0.000   0.200   0.000    0.00
   0.160   16.03    8.79    4.57   0.000   0.200   0.000    0.00
   0.170   15.94    9.98    5.54   0.000   0.200   0.000    0.00
   0.180   16.24   10.90    5.00   0.000   0.200   0.000    0.00
   0.190   16.30   11.28    5.12   0.000   0.200   0.000    0.00
   0.200   16.18   13.23    5.23   0.000   0.200   0.000    0.00
   0.210   16.47   15.23    5.28   0.000   0.200   0.000    0.00
   0.220   16.22   15.12    5.76   0.000   0.200   0.000    0.00
   0.230   16.05   17.53    5.86   0.000   0.200   0.000    0.00
   0.240   15.82   16.82    6.14   0.000   0.200   0.000    0.00
   0.250   15.77   18.36    6.19   0.000   0.200   0.000    0.00
   0.260   15.55   19.18    5.99   0.000   0.200   0.000    0.00
   0.270   15.02   18.84    5.47   0.000   0.200   0.000    0.00
   0.280   14.64   18.78    5.92   0.000   0.200   0.000    0.00
   0.290   14.36   16.78    5.84   0.000   0.200   0.000    0.00
   0.300   14.91   17.70    5.59   0.000   0.200   0.000    0.00
   0.310   15.12   19.68    5.53   0.000   0.200   0.000    0.00
   0.320   15.46   21.31    5.22   0.000   0.200   0.000    0.00
   0.330   15.47   19.50    4.96   0.000   0.200   0.000    0.00
   0.340   15.52   19.51    4.51   0.000   0.200   0.000    0.00
   0.350   14.99   20.62    4.88   0.000   0.200   0.000    0.00
   0.360   15.71   20.00    5.57   0.000   0.200   0.000    0.00
   0.370   16.22   20.04    5.99   0.000   0.200   0.000    0.00
   0.380   16.26   19.45    4.99   0.000   0.200   0.000    0.00
   0.390   15.95   20.51    4.62   0.000   0.200   0.000    0.00
   0.400   15.91   21.49    3.94   0.000   0.200   0.000    0.00
   0.410   16.03   21.48    4.87   0.000   0.200   0.000    0.00
   0.420   16.44   19.41    5.15   0.000   0.200   0.000    0.00
   0.430   15.99   19.29    4.75   0.000   0.200   0.000    0.00
   0.440   16.03   18.11    4.70   0.000   0.200   0.000    0.00
   0.450   15.98   18.52    4.04   0.000   0.200   0.000    0.00
   0.460   15.94   18.54    4.02   0.000   0.200   0.000    0.00
   0.470   15.58   18.65    4.00   0.000   0.200   0.000    0.00
   0.480   14.68   18.03    4.50   0.000   0.200   0.000    0.00
   0.490   14.66   17.13    4.66   0.000   0.200   0.000    0.00
   0.500   15.02   18.41    4.09   0.000   0.200   0.000    0.00
   0.510   15.16   17.60    3.80   0.000   0.200   0.000    0.00
   0.520   15.26   17.79    3.28   0.000   0.200   0.000    0.00
   0.530   15.28   17.79    3.60   0.000   0.200   0.000    0.00
   0.540   15.18   16.38    3.34   0.000   0.200   0.000    0.00
   0.550   15.42   16.55    2.83   0.000   0.200   0.000    0.00
   0.560   15.47   16.44    3.17   0.000   0.200   0.000    0.00
   0.570   15.72   16.75    3.45   0.000   0.200   0.000    0.00
   0.580   15.73   15.73    3.61   0.000   0.200   0.000    0.00
   0.590   15.42   18.00    3.21   0.000   0.200   0.000    0.00
   0.600   16.08   16.49    2.81   0.000   0.200   0.000    0.00
   0.610   15.91   18.29    3.19   0.000   0.200   0.000    0.00
   0.620   15.34   20.32    3.03   0.000   0.200   0.000    0.00
   0.630   15.58   18.90    3.54   0.000   0.200   0.000    0.00
   0.640   15.74   16.68    3.26   0.000   0.200   0.000    0.00
   0.650   16.12   18.71    2.92   0.000   0.200   0.000    0.00
   0.660   16.57   19.74    2.06   0.000   0.200   0.000    0.00
   0.670   17.01   16.61    2.01   0.000   0.200   0.000    0.00
   0.680   16.44   15.73    1.13   0.000   0.200   0.000    0.00
   0.690   16.64   15.56    1.57   0.000   0.200   0.000    0.00
   0.700   16.09   16.04    1.60   0.000   0.200   0.000    0.00
   0.710   15.64   15.25    1.58   0.000   0.200   0.000    0.00
   0.720   15.91   16.59    2.02   0.000   0.200   0.000    0.00
   0.730   15.79   15.76    2.31   0.000   0.200   0.000    0.00
   0.740   15.89   16.82    1.65   0.000   0.200   0.000    0.00
   0.750   16.00   14.99    2.35   0.000   0.200   0.000    0.00
   0.760   15.43   13.87    3.14   0.000   0.200   0.000    0.00
   0.770   14.83   14.96    3.50   0.000   0.200   0.000    0.00
   0.780   14.76   15.44    2.78   0.000   0.200   0.000    0.00
   0.790   14.67   13.95    2.50   0.000   0.200   0.000    0.00
   0.800   14.24   13.64    2.69   0.000   0.200   0.000    0.00
   0.810   14.38   13.30    2.48   0.000   0.200   0.000    0.00
   0.820   14.98   15.45    1.78   0.000   0.200   0.000    0.00
   0.830   14.52   15.69    1.95   0.000   0.200   0.000    0.00
   0.840   14.32   16.08    3.03   0.000   0.200   0.000    0.00
   0.850   13.96   16.23    3.14   0.000   0.200   0.000    0.00
   0.860   13.87   16.73    3.66   0.000   0.200   0.000    0.00
   0.870   14.11   15.50    4.02   0.000   0.200   0.000    0.00
   0.880   14.13   16.95    4.13   0.000   0.200   0.000    0.00
   0.890   14.07   16.87    3.89   0.000   0.200   0.000    0.00
   0.900   14.09   15.69    4.05   0.000   0.200   0.000    0.00
   0.910   13.96   17.27    3.89   0.000   0.200   0.000    0.00
   0.920   13.83   15.69    3.99   0.000   0.200   0.000    0.00
   0.930   13.95   16.58    4.33   0.000   0.200   0.000    0.00
   0.940   13.97   16.11    3.54   0.000   0.200   0.000    0.00
   0.950   13.75   17.72    3.55   0.000   0.200   0.000    0.00
   0.960   13.85   19.02    3.66   0.000   0.200   0.000    0.00
   0.970   13.60   18.03    3.84   0.000   0.200   0.000    0.00
   0.980   13.82   18.20    3.93   0.000   0.200   0.000    0.00
   0.990   13.72   19.86    3.77   0.000   0.200   0.000    0.00
   1.000   13.51   19.19    4.36   0.000   0.200   0.000    0.00
   1.010   13.64   20.19    4.35   0.000   0.200   0.000    0.00
   1.020   14.42   20.06    4.25   0.000   0.200   0.000    0.00
   1.030   14.47   17.79    4.11   0.000   0.200   0.000    0.00
   1.040   14.39   16.97    3.97   0.000   0.200   0.000    0.00
   1.050   14.46   13.61    4.66   0.000   0.200   0.000    0.00
   1.060   15.07   13.65    4.10   0.000   0.200   0.000    0.00
   1.070   15.16   12.21    3.54   0.000   0.200   0.000    0.00
   1.080   14.71   12.02    3.20   0.000   0.200   0.000    0.00
   1.090   14.83   14.03    3.78   0.000   0.200   0.000    0.00
   1.100   14.71   16.02    4.22   0.000   0.200   0.000    0.00
   1.110   14.45   14.27    4.28   0.000   0.200   0.000    0.00
   1.120   14.31   13.47    4.71   0.000   0.200   0.000    0.00
   1.130   14.01   15.08    4.83   0.000   0.200   0.000    0.00
   1.140   14.70   16.48    4.42   0.000   0.200   0.000    0.00
   1.150   14.45   15.13    4.35   0.000   0.200   0.000    0.00
   1.160   14.50   14.96    4.00   0.000   0.200   0.000    0.00
   1.170   13.96   13.86    3.13   0.000   0.200   0.000    0.00
   1.180   14.30   14.59    2.70   0.000   0.200   0.000    0.00
   1.190   14.16   13.75    3.21   0.000   0.200   0.000    0.00
   1.200   14.18   14.20    2.61   0.000   0.200   0.000    0.00
   1.210   13.55   15.23    2.45   0.000   0.200   0.000    0.00
   1.220   13.32   15.53    1.90   0.000   0.200   0.000    0.00
   1.230   13.31   11.24    1.84   0.000   0.200   0.000    0.00
   1.240   13.30   10.02    2.23   0.000   0.200   0.000    0.00
   1.250   13.67   11.41    2.10   0.000   0.200   0.000    0.00
   1.260   13.66   12.25    1.89   0.000   0.200   0.000    0.00
   1.270   13.14   12.40    1.95   0.000   0.200   0.000    0.00
   1.280   13.25   14.69    1.62   0.000   0.200   0.000    0.00
   1.290   12.81   13.69    1.77   0.000   0.200   0.000    0.00
   1.300   12.92   12.04    1.80   0.000   0.200   0.000    0.00
   1.310   13.01   12.47    2.49   0.000   0.200   0.000    0.00
   1.320   13.07   11.57    2.59   0.000   0.200   0.000    0.00
   1.330   12.88   10.18    2.43   0.000   0.200   0.000    0.00
   1.340   12.79    8.46    2.49   0.000   0.200   0.000    0.00
   1.350   13.16    8.00    2.74   0.000   0.200   0.000    0.00
   1.360   13.10    6.47    3.27   0.000   0.200   0.000    0.00
   1.370   13.25    8.60    3.31   0.000   0.200   0.000    0.00
   1.380   13.05    8.66    2.93   0.000   0.200   0.000    0.00
   1.390   12.83    7.00    2.35   0.000   0.200   0.000    0.00
   1.400   12.37    6.96    2.52   0.000   0.200   0.000    0.00
   1.410   12.29    5.35    2.50   0.000   0.200   0.000    0.00
   1.420   12.37    6.23    2.41   0.000   0.200   0.000    0.00
   1.430   12.13    5.29    2.14   0.000   0.200   0.000    0.00
   1.440   11.96    5.42    1.77   0.000   0.200   0.000    0.00
   1.450   12.15    7.51    1.29   0.000   0.200   0.000    0.00
   1.460   12.44    8.75    1.41   0.000   0.200   0.000    0.00
   1.470   12.60    7.50    1.75   0.000   0.200   0.000    0.00
   1.480   12.65    7.09    1.74   0.000   0.200   0.000    0.00
   1.490   12.65    6.16    1.63   0.000   0.200   0.000    0.00
   1.500   12.95    5.26    1.83   0.000   0.200   0.000    0.00
   1.510   12.96    4.07    2.41   0.000   0.200   0.000    0.00
   1.520   13.04    6.38    2.69   0.000   0.200   0.000    0.00
   1.530   12.81    4.12    2.99   0.000   0.200   0.000    0.00
   1.540   12.70    1.31    2.64   0.000   0.200   0.000    0.00
   1.550   12.64    3.45    2.61   0.000   0.200   0.000    0.00
   1.560   12.89    4.29    2.36   0.000   0.200   0.000    0.00
   1.570   13.31    2.71    2.72   0.000   0.200   0.000    0.00
   1.580   13.40    1.15    2.58   0.000   0.200   0.000    0.00
   1.590   12.82    1.07    2.48   0.000   0.200   0.000    0.00
   1.600   12.66    0.78    2.11   0.000   0.200   0.000    0.00
   1.610   12.75    1.93    1.85   0.000   0.200   0.000    0.00
   1.620   12.70    3.18    2.10   0.000   0.200   0.000    0.00
   1.630   12.88   -1.72    2.29   0.000   0.200   0.000    0.00
   1.640   13.32   -0.99    2.58   0.000   0.200   0.000    0.00
   1.650   13.32   -0.09    2.46   0.000   0.200   0.000    0.00
   1.660   12.72   -0.20    2.12   0.000   0.200   0.000    0.00
   1.670   12.33    2.73    2.12   0.000   0.200   0.000    0.00
   1.680   12.26    3.14    2.57   0.000   0.200   0.000    0.00
   1.690   11.98    2.22    2.25   0.000   0.200   0.000    0.00
   1.700   12.45    3.62    2.29   0.000   0.200   0.000    0.00
   1.710   12.17    4.78    2.66   0.000   0.200   0.000    0.00
   1.720   11.90    5.00    3.24   0.000   0.200   0.000    0.00
   1.730   11.76    3.94    3.73   0.000   0.200   0.000    0.00
   1.740   11.69    1.85    3.37   0.000   0.200   0.000    0.00
   1.750   11.68    3.64    3.18   0.000   0.200   0.000    0.00
   1.760   11.50    2.31    3.28   0.000   0.200   0.000    0.00
   1.770   11.54    1.36    3.17   0.000   0.200   0.000    0.00
   1.780   12.22    0.45    3.75   0.000   0.200   0.000    0.00
   1.790   12.20    0.43    4.36   0.000   0.200   0.000    0.00
   1.800   12.19    0.04    4.06   0.000   0.200   0.000    0.00
   1.810   12.51   -0.19    3.83   0.000   0.200   0.000    0.00
   1.820   12.31   -1.51    4.04   0.000   0.200   0.000    0.00
   1.830   12.56   -0.06    4.20   0.000   0.200   0.000    0.00
   1.840   12.62   -0.63    4.39   0.000   0.200   0.000    0.00
   1.850   12.63    2.85    4.14   0.000   0.200   0.000    0.00
   1.860   12.53    2.90    4.17   0.000   0.200   0.000    0.00
   1.870   12.67    4.17    4.00   0.000   0.200   0.000    0.00
   1.880   13.28    3.83    4.74   0.000   0.200   0.000    0.00
   1.890   13.33    4.11    4.35   0.000   0.200   0.000    0.00
   1.900   13.33    2.38    4.74   0.000   0.200   0.000    0.00
   1.910   13.46    0.20    4.95   0.000   0.200   0.000    0.00
   1.920   13.21   -0.52    4.86   0.000   0.200   0.000    0.00
   1.930   13.05   -0.88    4.54   0.000   0.200   0.000    0.00
   1.940   13.24   -1.19    4.42   0.000   0.200   0.000    0.00
   1.950   13.48    0.24    4.61   0.000   0.200   0.000    0.00
   1.960   13.73    1.04    5.11   0.000   0.200   0.000    0.00
   1.970   13.79    3.12    5.39   0.000   0.200   0.000    0.00
   1.980   14.37    2.69    5.28   0.000   0.200   0.000    0.00
   1.990   14.62    2.24    5.25   0.000   0.200   0.000    0.00
   2.000   14.75    0.13    5.80   0.000   0.200   0.000    0.00
   2.010   14.49   -0.08    6.13   0.000   0.200   0.000    0.00
   2.020   14.65    0.30    6.31   0.000   0.200   0.000    0.00
   2.030   14.18    1.83    6.24   0.000   0.200   0.000    0.00
   2.040   13.91    4.11    5.86   0.000   0.200   0.000    0.00
   2.050   14.58    3.84    5.31   0.000   0.200   0.000    0.00
   2.060   14.55    1.90    5.41   0.000   0.200   0.000    0.00
   2.070   14.40    0.17    5.29   0.000   0.200   0.000    0.00
   2.080   13.91    2.05    5.23   0.000   0.200   0.000    0.00
   2.090   13.55    0.62    5.34   0.000   0.200   0.000    0.00
   2.100   13.83   -0.65    5.75   0.000   0.200   0.000    0.00
   2.110   13.55    0.32    6.34   0.000   0.200   0.000    0.00
   2.120   14.03    0.24    6.68   0.000   0.200   0.000    0.00
   2.130   14.08   -0.22    6.18   0.000   0.200   0.000    0.00
   2.140   14.02   -0.80    6.17   0.000   0.200   0.000    0.00
   2.150   13.85   -0.68    6.68   0.000   0.200   0.000    0.00
   2.160   13.38   -1.11    6.99   0.000   0.200   0.000    0.00
   2.170   13.87   -3.20    6.86   0.000   0.200   0.000    0.00
   2.180   14.28   -2.74    6.45   0.000   0.200   0.000    0.00
   2.190   14.23   -2.07    6.85   0.000   0.200   0.000    0.00
   2.200   14.15   -2.53    6.71   0.000   0.200   0.000    0.00
   2.210   14.23   -4.38    7.04   0.000   0.200   0.000    0.00
   2.220   14.37   -5.71    6.75   0.000   0.200   0.000    0.00
   2.230   14.22   -7.31    6.88   0.000   0.200   0.000    0.00
   2.240   14.35   -7.88    7.08   0.000   0.200   0.000    0.00
   2.250   14.27   -5.80    6.77   0.000   0.200   0.000    0.00
   2.260   14.26   -5.40    6.86   0.000   0.200   0.000    0.00
   2.270   14.55   -6.24    6.68   0.000   0.200   0.000    0.00
   2.280   14.91   -6.87    6.63   0.000   0.200   0.000    0.00
   2.290   14.40   -6.09    6.14   0.000   0.200   0.000    0.00
   2.300   14.76   -6.16    6.45   0.000   0.200   0.000    0.00
   2.310   14.96   -6.95    6.20   0.000   0.200   0.000    0.00
   2.320   15.31   -6.54    5.99   0.000   0.200   0.000    0.00
   2.330   14.81   -3.79    6.26   0.000   0.200   0.000    0.00
   2.340   14.56   -4.15    6.01   0.000   0.200   0.000    0.00
   2.350   14.90   -4.34    5.99   0.000   0.200   0.000    0.00
   2.360   14.53   -4.00    6.04   0.000   0.200   0.000    0.00
   2.370   14.70   -3.91    6.78   0.000   0.200   0.000    0.00
   2.380   14.94   -3.00    7.03   0.000   0.200   0.000    0.00
   2.390   15.31   -1.66    6.53   0.000   0.200   0.000    0.00
   2.400   15.09   -2.53    6.23   0.000   0.200   0.000    0.00
   2.410   15.38   -2.02    6.02   0.000   0.200   0.000    0.00
   2.420   15.43   -1.26    5.45   0.000   0.200   0.000    0.00
   2.430   15.50   -0.55    5.31   0.000   0.200   0.000    0.00
   2.440   15.53   -1.33    5.08   0.000   0.200   0.000    0.00
   2.450   15.32   -1.01    5.42   0.000   0.200   0.000    0.00
   2.460   15.41   -1.20    5.18   0.000   0.200   0.000    0.00
   2.470   15.69   -3.20    4.99   0.000   0.200   0.000    0.00
   2.480   15.84   -4.00    5.33   0.000   0.200   0.000    0.00
   2.490   15.97   -2.23    5.36   0.000   0.200   0.000    0.00
   2.500   15.78   -4.18    5.03   0.000   0.200   0.000    0.00
   2.510   15.95   -4.01    5.71   0.000   0.200   0.000    0.00
   2.520   15.67   -4.04    5.75   0.000   0.200   0.000    0.00
   2.530   15.43   -4.54    5.40   0.000   0.200   0.000    0.00
   2.540   15.39   -5.12    5.35   0.000   0.200   0.000    0.00
   2.550   15.75   -6.10    5.04   0.000   0.200   0.000    0.00
   2.560   15.16   -3.93    5.06   0.000   0.200   0.000    0.00
   2.570   14.93   -2.25    5.51   0.000   0.200   0.000    0.00
   2.580   14.52   -2.85    5.68   0.000   0.200   0.000    0.00
   2.590   14.75   -4.65    5.48   0.000   0.200   0.000    0.00
   2.600   14.40   -5.07    5.46   0.000   0.200   0.000    0.00
   2.610   14.62   -4.22    4.86   0.000   0.200   0.000    0.00
   2.620   14.54   -5.24    5.13   0.000   0.200   0.000    0.00
   2.630   14.35   -7.23    5.50   0.000   0.200   0.000    0.00
   2.640   13.97   -7.88    5.82   0.000   0.200   0.000    0.00
   2.650   13.92   -7.85    5.78   0.000   0.200   0.000    0.00
   2.660   13.97   -8.82    5.15   0.000   0.200   0.000    0.00
   2.670   13.69   -7.67    5.73   0.000   0.200   0.000    0.00
   2.680   13.81   -6.44    5.70   0.000   0.200   0.000    0.00
   2.690   13.35   -7.17    5.27   0.000   0.200   0.000    0.00
   2.700   13.07   -9.37    4.94   0.000   0.200   0.000    0.00
   2.710   13.12   -9.85    4.66   0.000   0.200   0.000    0.00
   2.720   13.33   -8.13    4.03   0.000   0.200   0.000    0.00
   2.730   13.90   -4.79    3.90   0.000   0.200   0.000    0.00
   2.740   14.56   -4.43    3.95   0.000   0.200   0.000    0.00
   2.750   14.58   -3.51    3.77   0.000   0.200   0.000    0.00
   2.760   14.36   -3.73    3.81   0.000   0.200   0.000    0.00
   2.770   14.60   -3.80    4.20   0.000   0.200   0.000    0.00
   2.780   15.44   -2.86    4.63   0.000   0.200   0.000    0.00
   2.790   15.84   -6.17    4.40   0.000   0.200   0.000    0.00
   2.800   15.89   -5.31    4.46   0.000   0.200   0.000    0.00
   2.810   15.92   -6.19    4.80   0.000   0.200   0.000    0.00
   2.820   15.27   -8.40    4.83   0.000   0.200   0.000    0.00
   2.830   15.53  -11.21    4.54   0.000   0.200   0.000    0.00
   2.840   15.08  -10.49    4.49   0.000   0.200   0.000    0.00
   2.850   14.87  -10.88    4.58   0.000   0.200   0.000    0.00
   2.860   15.20  -13.02    4.44   0.000   0.200   0.000    0.00
   2.870   15.33  -11.81    4.38   0.000   0.200   0.000    0.00
   2.880   15.22  -11.08    4.44   0.000   0.200   0.000    0.00
   2.890   15.33  -11.91    3.74   0.000   0.200   0.000    0.00
   2.900   14.91  -13.43    3.86   0.000   0.200   0.000    0.00
   2.910   14.63  -12.74    3.45   0.000   0.200   0.000    0.00
   2.920   14.96  -13.99    3.09   0.000   0.200   0.000    0.00
   2.930   15.26  -15.28    3.59   0.000   0.200   0.000    0.00
   2.940   15.38  -15.62    4.14   0.000   0.200   0.000    0.00
   2.950   15.38  -16.21    3.33   0.000   0.200   0.000    0.00
   2.960   14.93  -16.82    3.31   0.000   0.200   0.000    0.00
   2.970   15.22  -16.74    3.53   0.000   0.200   0.000    0.00
   2.980   15.24  -14.80    3.13   0.000   0.200   0.000    0.00
   2.990   15.32  -15.56    3.04   0.000   0.200   0.000    0.00
   3.000   15.96  -13.71    3.35   0.000   0.200   0.000    0.00
   3.010   15.88  -13.31    3.65   0.000   0.200   0.000    0.00
   3.020   15.73  -14.41    3.10   0.000   0.200   0.000    0.00
   3.030   15.98  -16.96    3.40   0.000   0.200   0.000    0.00
   3.040   16.39  -16.69    3.02   0.000   0.200   0.000    0.00
   3.050   16.55  -15.95    2.32   0.000   0.200   0.000    0.00
   3.060   16.59  -16.07    2.51   0.000   0.200   0.000    0.00
   3.070   16.53  -14.83    2.90   0.000   0.200   0.000    0.00
   3.080   16.38  -16.19    2.88   0.000   0.200   0.000    0.00
   3.090   16.69  -15.67    2.93   0.000   0.200   0.000    0.00
   3.100   16.83  -13.94    2.64   0.000   0.200   0.000    0.00
   3.110   16.73  -14.66    1.98   0.000   0.200   0.000    0.00
   3.120   16.12  -15.46    2.13   0.000   0.200   0.000    0.00
   3.130   16.33  -16.70    2.40   0.000   0.200   0.000    0.00
   3.140   16.57  -18.09    2.70   0.000   0.200   0.000    0.00
   3.150   15.74  -16.72    2.84   0.000   0.200   0.000    0.00
   3.160   15.16  -16.54    3.05   0.000   0.200   0.000    0.00
   3.170   15.71  -13.47    3.55   0.000   0.200   0.000    0.00
   3.180   16.10  -16.26    3.72   0.000   0.200   0.000    0.00
   3.190   15.87  -17.91    3.79   0.000   0.200   0.000    0.00
   3.200   15.91  -17.69    4.21   0.000   0.200   0.000    0.00
   3.210   15.85  -17.82    3.73   0.000   0.200   0.000    0.00
   3.220   15.96  -18.95    3.91   0.000   0.200   0.000    0.00
   3.230   15.69  -19.75    4.11   0.000   0.200   0.000    0.00
   3.240   15.17  -20.50    4.07   0.000   0.200   0.000    0.00
   3.250   15.20  -20.50    4.71   0.000   0.200   0.000    0.00
   3.260   15.71  -20.39    4.54   0.000   0.200   0.000    0.00
   3.270   15.94  -17.90    5.29   0.000   0.200   0.000    0.00
   3.280   15.73  -17.56    5.51   0.000   0.200   0.000    0.00
   3.290   15.78  -18.17    5.55   0.000   0.200   0.000    0.00
   3.300   15.73  -17.65    5.56   0.000   0.200   0.000    0.00
   3.310   15.79  -17.01    5.39   0.000   0.200   0.000    0.00
   3.320   15.57  -18.10    5.46   0.000   0.200   0.000    0.00
   3.330   15.89  -18.45    5.26   0.000   0.200   0.000    0.00
   3.340   16.19  -19.98    5.42   0.000   0.200   0.000    0.00
   3.350   16.22  -18.53    5.52   0.000   0.200   0.000    0.00
   3.360   16.21  -16.40    5.99   0.000   0.200   0.000    0.00
   3.370   16.66  -18.65    5.95   0.000   0.200   0.000    0.00
   3.380   16.38  -18.87    6.03   0.000   0.200   0.000    0.00
   3.390   15.96  -18.32    5.68   0.000   0.200   0.000    0.00
   3.400   15.77  -18.96    5.30   0.000   0.200   0.000    0.00
   3.410   14.30  -18.28    5.52   0.000   0.200   0.000    0.00
   3.420   14.32  -17.54    5.76   0.000   0.200   0.000    0.00
   3.430   14.19  -17.63    5.67   0.000   0.200   0.000    0.00
   3.440   14.22  -18.96    6.23   0.000   0.200   0.000    0.00
   3.450   14.34  -19.23    5.73   0.000   0.200   0.000    0.00
   3.460   14.63  -17.89    6.46   0.000   0.200   0.000    0.00
   3.470   14.48  -16.78    6.87   0.000   0.200   0.000    0.00
   3.480   13.96  -16.22    6.48   0.000   0.200   0.000    0.00
   3.490   13.80  -14.75    6.09   0.000   0.200   0.000    0.00
   3.500   14.09  -14.39    5.77   0.000   0.200   0.000    0.00
   3.510   14.62  -13.14    5.60   0.000   0.200   0.000    0.00
   3.520   14.49  -12.77    5.52   0.000   0.200   0.000    0.00
   3.530   14.48  -13.67    5.26   0.000   0.200   0.000    0.00
   3.540   14.60  -16.30    6.16   0.000   0.200   0.000    0.00
   3.550   14.88  -15.07    6.47   0.000   0.200   0.000    0.00
   3.560   15.31  -15.72    6.01   0.000   0.200   0.000    0.00
   3.570   15.42  -15.60    5.90   0.000   0.200   0.000    0.00
   3.580   15.32  -16.42    5.61   0.000   0.200   0.000    0.00
   3.590   15.41  -15.80    5.25   0.000   0.200   0.000    0.00
   3.600   15.41  -16.92    5.70   0.000   0.200   0.000    0.00
   3.610   15.10  -15.94    5.81   0.000   0.200   0.000    0.00
   3.620   15.01  -13.63    5.54   0.000   0.200   0.000    0.00
   3.630   15.13  -11.70    5.63   0.000   0.200   0.000    0.00
   3.640   14.58  -11.86    5.46   0.000   0.200   0.000    0.00
   3.650   14.77  -10.36    5.67   0.000   0.200   0.000    0.00
   3.660   15.02   -9.71    5.42   0.000   0.200   0.000    0.00
   3.670   14.82   -9.08    5.33   0.000   0.200   0.000    0.00
   3.680   14.51   -9.28    5.22   0.000   0.200   0.000    0.00
   3.690   13.92   -8.84    4.79   0.000   0.200   0.000    0.00
   3.700   13.98  -11.96    4.66   0.000   0.200   0.000    0.00
   3.710   14.15  -13.62    4.87   0.000   0.200   0.000    0.00
   3.720   13.96  -14.59    4.71   0.000   0.200   0.000    0.00
   3.730   14.36  -13.17    4.93   0.000   0.200   0.000    0.00
   3.740   14.39  -11.28    5.14   0.000   0.200   0.000    0.00
   3.750   14.34  -12.65    4.28   0.000   0.200   0.000    0.00
   3.760   14.68  -13.85    4.87   0.000   0.200   0.000    0.00
   3.770   14.37  -14.53    4.78   0.000   0.200   0.000    0.00
   3.780   14.46  -16.64    4.97   0.000   0.200   0.000    0.00
   3.790   14.62  -17.09    5.72   0.000   0.200   0.000    0.00
   3.800   14.68  -18.67    5.47   0.000   0.200   0.000    0.00
   3.810   15.22  -19.59    5.62   0.000   0.200   0.000    0.00
   3.820   15.70  -19.56    5.91   0.000   0.200   0.000    0.00
   3.830   15.52  -19.01    6.15   0.000   0.200   0.000    0.00
   3.840   15.31  -17.78    5.39   0.000   0.200   0.000    0.00
   3.850   15.14  -18.16    5.22   0.000   0.200   0.000    0.00
   3.860   14.96  -18.46    5.26   0.000   0.200   0.000    0.00
   3.870   14.58  -17.04    5.19   0.000   0.200   0.000    0.00
   3.880   14.08  -14.79    5.75   0.000   0.200   0.000    0.00
   3.890   14.14  -14.93    6.46   0.000   0.200   0.000    0.00
   3.900   14.09  -15.16    6.58   0.000   0.200   0.000    0.00
   3.910   14.25  -14.65    6.33   0.000   0.200   0.000    0.00
   3.920   14.44  -15.30    6.36   0.000   0.200   0.000    0.00
   3.930   14.14  -15.65    6.65   0.000   0.200   0.000    0.00
   3.940   14.45  -17.28    6.21   0.000   0.200   0.000    0.00
   3.950   14.74  -18.85    6.04   0.000   0.200   0.000    0.00
   3.960   14.71  -16.99    6.08   0.000   0.200   0.000    0.00
   3.970   14.40  -15.72    6.31   0.000   0.200   0.000    0.00
   3.980   14.62  -14.54    6.51   0.000   0.200   0.000    0.00
   3.990   14.79  -14.64    6.12   0.000   0.200   0.000    0.00
   4.000   14.40  -14.33    6.16   0.000   0.200   0.000    0.00
   4.010   13.73  -12.70    6.04   0.000   0.200   0.000    0.00
   4.020   13.79  -14.09    6.09   0.000   0.200   0.000    0.00
   4.030   13.52  -14.42    5.77   0.000   0.200   0.000    0.00
   4.040   13.82  -17.24    5.90   0.000   0.200   0.000    0.00
   4.050   14.03  -17.45    6.04   0.000   0.200   0.000    0.00
   4.060   14.15  -19.95    5.16   0.000   0.200   0.000    0.00
   4.070   14.03  -19.38    5.11   0.000   0.200   0.000    0.00
   4.080   13.88  -17.37    5.20   0.000   0.200   0.000    0.00
   4.090   14.07  -19.35    5.27   0.000   0.200   0.000    0.00
   4.100   13.88  -21.56    4.70   0.000   0.200   0.000    0.00
   4.110   13.73  -22.21    5.00   0.000   0.200   0.000    0.00
   4.120   13.52  -22.52    4.65   0.000   0.200   0.000    0.00
   4.130   13.52  -21.90    4.73   0.000   0.200   0.000    0.00
   4.140   13.72  -23.32    5.16   0.000   0.200   0.000    0.00
   4.150   14.09  -23.65    4.47   0.000   0.200   0.000    0.00
   4.160   13.58  -23.07    4.59   0.000   0.200   0.000    0.00
   4.170   13.63  -22.89    3.75   0.000   0.200   0.000    0.00
   4.180   13.85  -22.89    3.73   0.000   0.200   0.000    0.00
   4.190   13.75  -23.68    3.85   0.000   0.200   0.000    0.00
   4.200   13.74  -23.59    4.03   0.000   0.200   0.000    0.00
   4.210   13.26  -22.41    4.82   0.000   0.200   0.000    0.00
   4.220   13.16  -22.05    4.45   0.000   0.200   0.000    0.00
   4.230   12.97  -19.72    4.41   0.000   0.200   0.000    0.00
   4.240   13.23  -18.30    4.29   0.000   0.200   0.000    0.00
   4.250   13.81  -21.56    4.45   0.000   0.200   0.000    0.00
   4.260   13.64  -21.89    4.54   0.000   0.200   0.000    0.00
   4.270   13.28  -23.09    4.30   0.000   0.200   0.000    0.00
   4.280   13.02  -22.83    4.41   0.000   0.200   0.000    0.00
   4.290   12.91  -21.32    4.05   0.000   0.200   0.000    0.00
   4.300   12.53  -23.50    3.83   0.000   0.200   0.000    0.00
   4.310   12.55  -24.75    3.28   0.000   0.200   0.000    0.00
   4.320   13.18  -26.49    2.94   0.000   0.200   0.000    0.00
   4.330   13.33  -22.91    2.84   0.000   0.200   0.000    0.00
   4.340   14.10  -23.90    2.49   0.000   0.200   0.000    0.00
   4.350   14.24  -24.97    2.22   0.000   0.200   0.000    0.00
   4.360   14.16  -26.96    2.55   0.000   0.200   0.000    0.00
   4.370   14.42  -25.98    2.55   0.000   0.200   0.000    0.00
   4.380   14.29  -24.67    2.20   0.000   0.200   0.000    0.00
   4.390   14.07  -24.05    2.07   0.000   0.200   0.000    0.00
   4.400   14.00  -23.71    1.82   0.000   0.200   0.000    0.00
   4.410   14.30  -24.00    2.28   0.000   0.200   0.000    0.00
   4.420   14.51  -23.06    2.30   0.000   0.200   0.000    0.00
   4.430   14.26  -23.56    2.50   0.000   0.200   0.000    0.00
   4.440   14.60  -24.93    2.45   0.000   0.200   0.000    0.00
   4.450   14.22  -25.03    2.19   0.000   0.200   0.000    0.00
   4.460   14.94  -26.44    2.25   0.000   0.200   0.000    0.00
   4.470   14.80  -27.31    2.58   0.000   0.200   0.000    0.00
   4.480   14.82  -27.13    2.46   0.000   0.200   0.000    0.00
   4.490   14.92  -26.60    3.13   0.000   0.200   0.000    0.00
   4.500   15.58  -26.15    3.07   0.000   0.200   0.000    0.00
   4.510   15.35  -24.76    2.84   0.000   0.200   0.000    0.00
   4.520   15.71  -23.42    3.25   0.000   0.200   0.000    0.00
   4.530   14.99  -23.09    3.63   0.000   0.200   0.000    0.00
   4.540   14.59  -19.47    3.42   0.000   0.200   0.000    0.00