! This hub-height wind-speed file was generated by TurbSim (from OpenFAST--128-NOTFOUND) on 23-Aug-2023 at 09:41:11.
!
! The requested statistics for this data were:
!    Mean Total Wind Speed =   20.000 m/s
!    Turbulence Intensity  =   14.420%
!
!   Time  HorSpd  WndDir  VerSpd  HorShr  VerShr  LnVShr  GstSpd
!  (sec)   (m/s)   (deg)   (m/s)     (-)     (-)     (-)   (m/s)
   0.000   17.00  -13.16    1.38   0.000   0.200   0.000    0.00
   0.010   16.92  -13.64    1.36   0.000   0.200   0.000    0.00
   0.020   17.44  -13.61    1.00   0.000   0.200   0.000    0.00
   0.030   17.59  -14.23    0.66   0.000   0.200   0.000    0.00
   0.040   17.41  -14.73    0.44   0.000   0.200   0.000    0.00
   0.050   17.54  -16.65    0.21   0.000   0.200   0.000    0.00
   0.060   17.39  -16.46    0.34   0.000   0.200   0.000    0.00
   0.070   17.91  -13.74   -0.05   0.000   0.200   0.000    0.00
   0.080   17.86  -14.29   -0.16   0.000   0.200   0.000    0.00
   0.090   17.93  -14.86   -0.17   0.000   0.200   0.000    0.00
   0.100   17.81  -15.14    0.06   0.000   0.200   0.000    0.00
   0.110   17.61  -14.54   -0.42   0.000   0.200   0.000    0.00
   0.120   17.61  -14.09   -0.50   0.000   0.200   0.000    0.00
   0.130   17.20  -11.72   -0.70   0.000   0.200   0.000    0.00
   0.140   16.60  -11.73   -0.94   0.000   0.200   0.000    0.00
   0.150   16.71  -11.87   -1.05   0.000   0.200   0.000    0.00
   0.160   16.80  -12.96   -0.96   0.000   0.200   0.000    0.00
   0.170   16.55  -12.61   -1.70   0.000   0.200   0.000    0.00
   0.180   16.81  -12.13   -1.90   0.000   0.200   0.000    0.00
   0.190   16.71  -10.87   -1.69   0.000   0.200   0.000    0.00
   0.200   16.90  -12.56   -2.23   0.000   0.200   0.000    0.00
   0.210   16.82  -12.98   -2.29   0.000   0.200   0.000    0.00
   0.220   17.01  -14.24   -1.61   0.000   0.200   0.000    0.00
   0.230   17.08  -13.01   -1.26   0.000   0.200   0.000    0.00
   0.240   16.56  -10.19   -0.49   0.000   0.200   0.000    0.00
   0.250   17.20   -9.76   -0.56   0.000   0.200   0.000    0.00
   0.260   17.35   -9.08   -1.28   0.000   0.200   0.000    0.00
   0.270   17.27   -8.51   -0.85   0.000   0.200   0.000    0.00
   0.280   16.86   -8.41   -0.78   0.000   0.200   0.000    0.00
   0.290   16.52   -7.59   -0.92   0.000   0.200   0.000    0.00
   0.300   16.48   -7.35   -0.84   0.000   0.200   0.000    0.00
   0.310   16.93   -6.80   -0.41   0.000   0.200   0.000    0.00
   0.320   17.69   -6.02   -0.29   0.000   0.200   0.000    0.00
   0.330   18.48   -6.71   -0.50   0.000   0.200   0.000    0.00
   0.340   18.01   -7.25   -0.50   0.000   0.200   0.000    0.00
   0.350   18.33   -8.18   -0.73   0.000   0.200   0.000    0.00
   0.360   18.06   -8.84   -0.86   0.000   0.200   0.000    0.00
   0.370   17.65   -8.46   -0.97   0.000   0.200   0.000    0.00
   0.380   17.99   -7.96   -0.72   0.000   0.200   0.000    0.00
   0.390   17.66  -10.19   -1.30   0.000   0.200   0.000    0.00
   0.400   17.32  -11.20   -1.34   0.000   0.200   0.000    0.00
   0.410   17.28   -9.88   -1.55   0.000   0.200   0.000    0.00
   0.420   17.26   -8.67   -1.75   0.000   0.200   0.000    0.00
   0.430   17.25   -9.51   -1.82   0.000   0.200   0.000    0.00
   0.440   17.07  -10.72   -1.30   0.000   0.200   0.000    0.00
   0.450   17.19   -9.35   -0.97   0.000   0.200   0.000    0.00
   0.460   17.22   -8.57   -1.26   0.000   0.200   0.000    0.00
   0.470   17.45   -7.50   -1.85   0.000   0.200   0.000    0.00
   0.480   17.75   -7.01   -1.43   0.000   0.200   0.000    0.00
   0.490   18.37   -5.81   -1.10   0.000   0.200   0.000    0.00
   0.500   18.23   -7.54   -1.11   0.000   0.200   0.000    0.00
   0.510   18.50   -5.96   -1.64   0.000   0.200   0.000    0.00
   0.520   18.68   -5.70   -1.88   0.000   0.200   0.000    0.00
   0.530   18.83   -5.35   -2.20   0.000   0.200   0.000    0.00
   0.540   18.96   -6.18   -2.11   0.000   0.200   0.000    0.00
   0.550   19.12   -7.14   -1.27   0.000   0.200   0.000    0.00
   0.560   19.08   -5.65   -1.09   0.000   0.200   0.000    0.00
   0.570   19.30   -5.53   -1.46   0.000   0.200   0.000    0.00
   0.580   19.39   -5.92   -1.18   0.000   0.200   0.000    0.00
   0.590   19.64   -4.63   -1.73   0.000   0.200   0.000    0.00
   0.600   19.38   -4.86   -1.69   0.000   0.200   0.000    0.00
   0.610   19.79   -3.73   -2.64   0.000   0.200   0.000    0.00
   0.620   19.77   -3.49   -2.69   0.000   0.200   0.000    0.00
   0.630   19.65   -2.97   -2.43   0.000   0.200   0.000    0.00
   0.640   19.72   -2.78   -1.89   0.000   0.200   0.000    0.00
   0.650   20.00   -3.56   -1.40   0.000   0.200   0.000    0.00
   0.660   20.06   -2.85   -1.36   0.000   0.200   0.000    0.00
   0.670   19.58   -2.76   -1.10   0.000   0.200   0.000    0.00
   0.680   19.37   -2.21   -1.02   0.000   0.200   0.000    0.00
   0.690   19.27   -3.38   -1.32   0.000   0.200   0.000    0.00
   0.700   19.46   -4.18   -0.94   0.000   0.200   0.000    0.00
   0.710   19.45   -3.82   -0.96   0.000   0.200   0.000    0.00
   0.720   19.78   -3.55   -0.67   0.000   0.200   0.000    0.00
   0.730   20.40   -4.23   -0.08   0.000   0.200   0.000    0.00
   0.740   20.51   -5.54   -0.57   0.000   0.200   0.000    0.00
   0.750   20.60   -6.67   -0.53   0.000   0.200   0.000    0.00
   0.760   20.46   -5.33   -0.76   0.000   0.200   0.000    0.00
   0.770   20.24   -4.69   -1.12   0.000   0.200   0.000    0.00
   0.780   20.44   -5.78   -1.31   0.000   0.200   0.000    0.00
   0.790   20.39   -5.49   -0.96   0.000   0.200   0.000    0.00
   0.800   20.63   -4.72   -1.12   0.000   0.200   0.000    0.00
   0.810   20.39   -3.64   -1.70   0.000   0.200   0.000    0.00
   0.820   20.18   -4.39   -1.38   0.000   0.200   0.000    0.00
   0.830   19.59   -3.14   -1.75   0.000   0.200   0.000    0.00
   0.840   19.41   -1.43   -1.91   0.000   0.200   0.000    0.00
   0.850   19.55   -1.85   -2.24   0.000   0.200   0.000    0.00
   0.860   19.77   -1.16   -2.88   0.000   0.200   0.000    0.00
   0.870   19.79   -3.05   -2.37   0.000   0.200   0.000    0.00
   0.880   19.83   -3.01   -2.18   0.000   0.200   0.000    0.00
   0.890   19.97   -2.10   -2.30   0.000   0.200   0.000    0.00
   0.900   19.60   -3.34   -2.30   0.000   0.200   0.000    0.00
   0.910   19.46   -2.79   -2.67   0.000   0.200   0.000    0.00
   0.920   19.30   -3.07   -2.55   0.000   0.200   0.000    0.00
   0.930   18.80   -4.85   -2.43   0.000   0.200   0.000    0.00
   0.940   18.95   -4.63   -2.56   0.000   0.200   0.000    0.00
   0.950   19.12   -5.60   -2.43   0.000   0.200   0.000    0.00
   0.960   19.65   -5.68   -2.38   0.000   0.200   0.000    0.00
   0.970   19.68   -6.52   -2.67   0.000   0.200   0.000    0.00
   0.980   19.83   -4.85   -2.70   0.000   0.200   0.000    0.00
   0.990   20.03   -4.97   -2.71   0.000   0.200   0.000    0.00
   1.000   20.06   -6.89   -2.48   0.000   0.200   0.000    0.00
   1.010   19.91   -6.79   -2.86   0.000   0.200   0.000    0.00
   1.020   19.78   -7.21   -3.20   0.000   0.200   0.000    0.00
   1.030   20.08   -7.68   -2.94   0.000   0.200   0.000    0.00
   1.040   20.34   -7.43   -2.38   0.000   0.200   0.000    0.00
   1.050   20.29   -6.87   -2.43   0.000   0.200   0.000    0.00
   1.060   20.45   -5.98   -1.96   0.000   0.200   0.000    0.00
   1.070   20.58   -6.47   -2.12   0.000   0.200   0.000    0.00
   1.080   20.48   -5.13   -2.31   0.000   0.200   0.000    0.00
   1.090   20.73   -4.96   -2.09   0.000   0.200   0.000    0.00
   1.100   20.55   -5.45   -2.68   0.000   0.200   0.000    0.00
   1.110   20.48   -6.87   -1.71   0.000   0.200   0.000    0.00
   1.120   20.51   -6.50   -1.70   0.000   0.200   0.000    0.00
   1.130   20.65   -5.27   -1.82   0.000   0.200   0.000    0.00
   1.140   20.50   -6.23   -2.68   0.000   0.200   0.000    0.00
   1.150   20.30   -6.16   -2.69   0.000   0.200   0.000    0.00
   1.160   20.51   -5.79   -2.61   0.000   0.200   0.000    0.00
   1.170   20.86   -4.99   -2.98   0.000   0.200   0.000    0.00
   1.180   20.62   -5.13   -2.98   0.000   0.200   0.000    0.00
   1.190   20.75   -5.32   -2.87   0.000   0.200   0.000    0.00
   1.200   21.01   -4.19   -2.75   0.000   0.200   0.000    0.00
   1.210   21.12   -4.39   -2.66   0.000   0.200   0.000    0.00
   1.220   21.22   -6.03   -2.65   0.000   0.200   0.000    0.00
   1.230   21.15   -5.92   -2.70   0.000   0.200   0.000    0.00
   1.240   21.57   -7.83   -2.68   0.000   0.200   0.000    0.00
   1.250   21.79   -7.44   -2.62   0.000   0.200   0.000    0.00
   1.260   21.86   -5.84   -2.54   0.000   0.200   0.000    0.00
   1.270   21.87   -5.92   -1.76   0.000   0.200   0.000    0.00
   1.280   22.14   -7.50   -1.95   0.000   0.200   0.000    0.00
   1.290   22.35   -6.26   -2.04   0.000   0.200   0.000    0.00
   1.300   22.46   -7.57   -1.43   0.000   0.200   0.000    0.00
   1.310   22.63   -6.73   -1.84   0.000   0.200   0.000    0.00
   1.320   22.51   -7.36   -1.57   0.000   0.200   0.000    0.00
   1.330   22.03   -7.15   -1.76   0.000   0.200   0.000    0.00
   1.340   22.08   -5.76   -1.38   0.000   0.200   0.000    0.00
   1.350   22.31   -5.38   -1.06   0.000   0.200   0.000    0.00
   1.360   22.34   -4.75   -1.17   0.000   0.200   0.000    0.00
   1.370   22.17   -5.08   -0.68   0.000   0.200   0.000    0.00
   1.380   22.16   -6.14   -0.91   0.000   0.200   0.000    0.00
   1.390   21.89   -6.11   -0.77   0.000   0.200   0.000    0.00
   1.400   21.80   -4.23   -0.44   0.000   0.200   0.000    0.00
   1.410   21.50   -3.94   -1.12   0.000   0.200   0.000    0.00
   1.420   21.63   -2.82   -0.80   0.000   0.200   0.000    0.00
   1.430   21.69   -2.85   -1.22   0.000   0.200   0.000    0.00
   1.440   21.15   -3.54   -1.05   0.000   0.200   0.000    0.00
   1.450   20.80   -4.31   -1.14   0.000   0.200   0.000    0.00
   1.460   20.66   -5.19   -0.85   0.000   0.200   0.000    0.00
   1.470   20.82   -6.34   -0.55   0.000   0.200   0.000    0.00
   1.480   20.72   -5.75   -0.67   0.000   0.200   0.000    0.00
   1.490   21.05   -5.41   -0.64   0.000   0.200   0.000    0.00
   1.500   21.10   -4.97   -1.48   0.000   0.200   0.000    0.00
   1.510   21.33   -5.17   -2.24   0.000   0.200   0.000    0.00
   1.520   21.66   -6.68   -2.31   0.000   0.200   0.000    0.00
   1.530   21.49   -6.86   -2.36   0.000   0.200   0.000    0.00
   1.540   22.09   -7.07   -2.38   0.000   0.200   0.000    0.00
   1.550   22.58   -6.12   -2.54   0.000   0.200   0.000    0.00
   1.560   22.97   -5.95   -2.53   0.000   0.200   0.000    0.00
   1.570   22.53   -5.58   -2.46   0.000   0.200   0.000    0.00
   1.580   22.00   -7.06   -2.57   0.000   0.200   0.000    0.00
   1.590   21.89   -7.10   -2.25   0.000   0.200   0.000    0.00
   1.600   21.80   -8.34   -2.32   0.000   0.200   0.000    0.00
   1.610   22.40   -9.08   -2.20   0.000   0.200   0.000    0.00
   1.620   22.23   -7.24   -2.09   0.000   0.200   0.000    0.00
   1.630   21.63   -5.95   -2.39   0.000   0.200   0.000    0.00
   1.640   21.94   -7.16   -2.30   0.000   0.200   0.000    0.00
   1.650   22.43   -5.63   -1.27   0.000   0.200   0.000    0.00
   1.660   22.95   -5.10   -1.39   0.000   0.200   0.000    0.00
   1.670   22.67   -4.58   -1.58   0.000   0.200   0.000    0.00
   1.680   23.07   -5.86   -1.49   0.000   0.200   0.000    0.00
   1.690   22.95   -5.22   -1.49   0.000   0.200   0.000    0.00
   1.700   22.86   -5.57   -1.55   0.000   0.200   0.000    0.00
   1.710   22.72   -6.41   -1.54   0.000   0.200   0.000    0.00
   1.720   22.71   -7.00   -1.76   0.000   0.200   0.000    0.00
   1.730   22.53   -6.06   -2.06   0.000   0.200   0.000    0.00
   1.740   22.50   -5.38   -2.10   0.000   0.200   0.000    0.00
   1.750   23.13   -5.79   -2.07   0.000   0.200   0.000    0.00
   1.760   23.74   -6.07   -1.66   0.000   0.200   0.000    0.00
   1.770   24.05   -5.07   -1.18   0.000   0.200   0.000    0.00
   1.780   23.77   -5.14   -1.23   0.000   0.200   0.000    0.00
   1.790   23.63   -4.72   -1.15   0.000   0.200   0.000    0.00
   1.800   23.03   -4.61   -1.03   0.000   0.200   0.000    0.00
   1.810   22.54   -4.71   -0.34   0.000   0.200   0.000    0.00
   1.820   22.57   -3.03   -0.15   0.000   0.200   0.000    0.00
   1.830   22.27   -3.82   -0.38   0.000   0.200   0.000    0.00
   1.840   22.16   -4.94   -0.67   0.000   0.200   0.000    0.00
   1.850   21.90   -5.27   -0.20   0.000   0.200   0.000    0.00
   1.860   22.33   -5.70    0.00   0.000   0.200   0.000    0.00
   1.870   22.68   -4.39    0.47   0.000   0.200   0.000    0.00
   1.880   22.46   -5.38   -0.17   0.000   0.200   0.000    0.00
   1.890   23.14   -5.06   -0.58   0.000   0.200   0.000    0.00
   1.900   23.59   -3.85   -0.57   0.000   0.200   0.000    0.00
   1.910   23.36   -5.41   -0.59   0.000   0.200   0.000    0.00
   1.920   23.26   -5.93   -0.96   0.000   0.200   0.000    0.00
   1.930   22.76   -5.07   -1.43   0.000   0.200   0.000    0.00
   1.940   22.64   -5.21   -1.33   0.000   0.200   0.000    0.00
   1.950   21.92   -6.87   -1.11   0.000   0.200   0.000    0.00
   1.960   21.75   -5.94   -1.34   0.000   0.200   0.000    0.00
   1.970   21.93   -3.98   -1.46   0.000   0.200   0.000    0.00
   1.980   22.52   -5.29   -1.06   0.000   0.200   0.000    0.00
   1.990   23.17   -6.08   -0.54   0.000   0.200   0.000    0.00
   2.000   23.54   -6.60   -0.65   0.000   0.200   0.000    0.00
   2.010   24.06   -6.16   -0.26   0.000   0.200   0.000    0.00
   2.020   23.86   -5.69   -0.28   0.000   0.200   0.000    0.00
   2.030   23.30   -6.21    0.05   0.000   0.200   0.000    0.00
   2.040   23.28   -7.53    0.15   0.000   0.200   0.000    0.00
   2.050   23.26   -6.89   -0.66   0.000   0.200   0.000    0.00
   2.060   23.57   -7.37   -0.68   0.000   0.200   0.000    0.00
   2.070   23.66   -5.98   -0.30   0.000   0.200   0.000    0.00
   2.080   24.13   -6.18   -0.56   0.000   0.200   0.000    0.00
   2.090   24.54   -6.60   -1.10   0.000   0.200   0.000    0.00
   2.100   23.91   -7.26   -1.63   0.000   0.200   0.000    0.00
   2.110   23.70   -8.26   -1.33   0.000   0.200   0.000    0.00
   2.120   23.41   -7.63   -1.32   0.000   0.200   0.000    0.00
   2.130   24.03   -9.19   -1.12   0.000   0.200   0.000    0.00
   2.140   24.02  -10.87   -0.77   0.000   0.200   0.000    0.00
   2.150   23.69  -11.29   -1.25   0.000   0.200   0.000    0.00
   2.160   23.38  -10.22   -0.43   0.000   0.200   0.000    0.00
   2.170   22.67   -9.26   -0.49   0.000   0.200   0.000    0.00
   2.180   23.02  -10.30   -0.80   0.000   0.200   0.000    0.00
   2.190   23.02   -8.26   -1.17   0.000   0.200   0.000    0.00
   2.200   23.04   -8.14   -1.36   0.000   0.200   0.000    0.00
   2.210   23.32   -8.30   -1.03   0.000   0.200   0.000    0.00
   2.220   22.89   -7.53   -0.91   0.000   0.200   0.000    0.00
   2.230   23.17   -6.33   -1.03   0.000   0.200   0.000    0.00
   2.240   23.19   -5.52   -0.65   0.000   0.200   0.000    0.00
   2.250   23.20   -6.10   -1.30   0.000   0.200   0.000    0.00
   2.260   23.04   -5.22   -1.29   0.000   0.200   0.000    0.00
   2.270   23.08   -7.01   -0.82   0.000   0.200   0.000    0.00
   2.280   23.33   -6.70   -1.30   0.000   0.200   0.000    0.00
   2.290   23.66   -6.23   -0.76   0.000   0.200   0.000    0.00
   2.300   23.74   -5.24   -0.74   0.000   0.200   0.000    0.00
   2.310   23.95   -5.08   -1.27   0.000   0.200   0.000    0.00
   2.320   23.82   -5.76   -0.73   0.000   0.200   0.000    0.00
   2.330   23.69   -4.55   -0.19   0.000   0.200   0.000    0.00
   2.340   23.59   -5.99   -0.45   0.000   0.200   0.000    0.00
   2.350   23.61   -4.80   -0.14   0.000   0.200   0.000    0.00
   2.360   23.45   -5.21   -0.11   0.000   0.200   0.000    0.00
   2.370   23.57   -7.06   -0.62   0.000   0.200   0.000    0.00
   2.380   24.06   -7.51   -0.92   0.000   0.200   0.000    0.00
   2.390   23.81   -6.49   -0.59   0.000   0.200   0.000    0.00
   2.400   23.56   -4.86   -0.43   0.000   0.200   0.000    0.00
   2.410   23.95   -5.59   -0.28   0.000   0.200   0.000    0.00
   2.420   24.13   -7.09   -0.20   0.000   0.200   0.000    0.00
   2.430   24.61   -8.19    0.15   0.000   0.200   0.000    0.00
   2.440   24.88   -8.24    0.65   0.000   0.200   0.000    0.00
   2.450   24.70   -7.71    0.85   0.000   0.200   0.000    0.00
   2.460   24.17   -7.55    0.74   0.000   0.200   0.000    0.00
   2.470   24.33   -7.10    0.66   0.000   0.200   0.000    0.00
   2.480   24.48   -6.73    1.43   0.000   0.200   0.000    0.00
   2.490   24.43   -6.67    1.36   0.000   0.200   0.000    0.00
   2.500   24.67   -7.46    1.33   0.000   0.200   0.000    0.00
   2.510   24.38   -6.72    1.28   0.000   0.200   0.000    0.00
   2.520   24.37   -7.43    1.20   0.000   0.200   0.000    0.00
   2.530   24.26   -7.84    1.48   0.000   0.200   0.000    0.00
   2.540   24.29   -8.58    1.31   0.000   0.200   0.000    0.00
   2.550   24.41   -8.39    1.18   0.000   0.200   0.000    0.00
   2.560   24.31   -7.93    0.61   0.000   0.200   0.000    0.00
   2.570   24.08   -7.49    0.65   0.000   0.200   0.000    0.00
   2.580   23.78   -7.32    0.96   0.000   0.200   0.000    0.00
   2.590   24.16   -7.51    1.34   0.000   0.200   0.000    0.00
   2.600   24.72   -7.53    1.63   0.000   0.200   0.000    0.00
   2.610   24.56   -6.76    1.30   0.000   0.200   0.000    0.00
   2.620   24.02   -6.73    1.32   0.000   0.200   0.000    0.00
   2.630   24.08   -7.01    1.27   0.000   0.200   0.000    0.00
   2.640   24.27   -9.01    1.37   0.000   0.200   0.000    0.00
   2.650   24.67   -8.49    1.46   0.000   0.200   0.000    0.00
   2.660   24.70   -7.57    1.73   0.000   0.200   0.000    0.00
   2.670   24.62   -8.77    1.69   0.000   0.200   0.000    0.00
   2.680   24.06   -8.72    1.87   0.000   0.200   0.000    0.00
   2.690   23.89   -6.73    1.68   0.000   0.200   0.000    0.00
   2.700   24.04   -6.01    2.46   0.000   0.200   0.000    0.00
   2.710   23.92   -5.93    2.14   0.000   0.200   0.000    0.00
   2.720   23.52   -4.90    1.82   0.000   0.200   0.000    0.00
   2.730   22.91   -6.55    1.26   0.000   0.200   0.000    0.00
   2.740   23.16   -7.76    1.31   0.000   0.200   0.000    0.00
   2.750   23.18   -6.64    1.99   0.000   0.200   0.000    0.00
   2.760   23.02   -7.46    1.83   0.000   0.200   0.000    0.00
   2.770   22.89   -7.25    2.00   0.000   0.200   0.000    0.00
   2.780   22.85   -6.19    1.93   0.000   0.200   0.000    0.00
   2.790   22.85   -5.70    2.03   0.000   0.200   0.000    0.00
   2.800   23.17   -4.76    2.09   0.000   0.200   0.000    0.00
   2.810   22.82   -5.17    2.39   0.000   0.200   0.000    0.00
   2.820   22.33   -4.30    2.14   0.000   0.200   0.000    0.00
   2.830   22.77   -5.23    1.60   0.000   0.200   0.000    0.00
   2.840   22.52   -6.38    1.82   0.000   0.200   0.000    0.00
   2.850   22.70   -9.02    2.39   0.000   0.200   0.000    0.00
   2.860   22.39   -8.78    2.30   0.000   0.200   0.000    0.00
   2.870   22.92   -7.96    1.99   0.000   0.200   0.000    0.00
   2.880   22.75   -7.99    2.08   0.000   0.200   0.000    0.00
   2.890   23.17   -6.68    1.62   0.000   0.200   0.000    0.00
   2.900   22.98   -7.23    0.97   0.000   0.200   0.000    0.00
   2.910   22.44   -6.96    1.13   0.000   0.200   0.000    0.00
   2.920   22.99   -7.38    1.34   0.000   0.200   0.000    0.00
   2.930   22.91   -6.79    1.79   0.000   0.200   0.000    0.00
   2.940   22.80   -5.73    1.48   0.000   0.200   0.000    0.00
   2.950   22.40   -5.95    1.39   0.000   0.200   0.000    0.00
   2.960   22.44   -5.08    1.76   0.000   0.200   0.000    0.00
   2.970   22.68   -4.22    1.73   0.000   0.200   0.000    0.00
   2.980   22.17   -5.18    2.19   0.000   0.200   0.000    0.00
   2.990   21.99   -4.97    2.74   0.000   0.200   0.000    0.00
   3.000   22.04   -3.99    2.15   0.000   0.200   0.000    0.00
   3.010   22.57   -2.90    1.94   0.000   0.200   0.000    0.00
   3.020   22.31   -2.20    1.44   0.000   0.200   0.000    0.00
   3.030   22.27   -2.43    1.29   0.000   0.200   0.000    0.00
   3.040   22.57   -2.00    1.72   0.000   0.200   0.000    0.00
   3.050   22.66   -2.60    1.57   0.000   0.200   0.000    0.00
   3.060   23.00   -2.23    1.82   0.000   0.200   0.000    0.00
   3.070   23.52   -4.51    1.33   0.000   0.200   0.000    0.00
   3.080   23.05   -4.73    1.53   0.000   0.200   0.000    0.00
   3.090   22.56   -5.13    1.68   0.000   0.200   0.000    0.00
   3.100   22.71   -4.25    1.81   0.000   0.200   0.000    0.00
   3.110   22.99   -3.76    1.83   0.000   0.200   0.000    0.00
   3.120   23.11   -3.29    1.84   0.000   0.200   0.000    0.00
   3.130   22.63   -4.45    1.64   0.000   0.200   0.000    0.00
   3.140   23.35   -6.06    1.58   0.000   0.200   0.000    0.00
   3.150   22.99   -4.44    1.80   0.000   0.200   0.000    0.00
   3.160   23.14   -2.62    2.29   0.000   0.200   0.000    0.00
   3.170   22.99   -0.88    2.16   0.000   0.200   0.000    0.00
   3.180   22.48   -0.62    2.12   0.000   0.200   0.000    0.00
   3.190   22.97    0.58    3.11   0.000   0.200   0.000    0.00
   3.200   22.86   -0.77    2.55   0.000   0.200   0.000    0.00
   3.210   22.94    0.25    1.93   0.000   0.200   0.000    0.00
   3.220   23.41    1.35    2.53   0.000   0.200   0.000    0.00
   3.230   23.33    0.71    2.79   0.000   0.200   0.000    0.00
   3.240   23.83    0.41    3.10   0.000   0.200   0.000    0.00
   3.250   23.72    2.08    3.80   0.000   0.200   0.000    0.00
   3.260   23.90    0.62    3.37   0.000   0.200   0.000    0.00
   3.270   23.55    2.63    2.71   0.000   0.200   0.000    0.00
   3.280   23.82    2.84    2.52   0.000   0.200   0.000    0.00
   3.290   23.83    2.62    2.47   0.000   0.200   0.000    0.00
   3.300   24.30    3.09    2.57   0.000   0.200   0.000    0.00
   3.310   23.74    3.72    2.94   0.000   0.200   0.000    0.00
   3.320   23.97    3.46    3.04   0.000   0.200   0.000    0.00
   3.330   23.94    3.68    2.65   0.000   0.200   0.000    0.00
   3.340   23.39    3.62    2.64   0.000   0.200   0.000    0.00
   3.350   23.39    2.72    2.95   0.000   0.200   0.000    0.00
   3.360   22.73    3.77    2.56   0.000   0.200   0.000    0.00
   3.370   23.18    2.50    2.89   0.000   0.200   0.000    0.00
   3.380   23.50    2.39    3.00   0.000   0.200   0.000    0.00
   3.390   23.10    3.26    3.86   0.000   0.200   0.000    0.00
   3.400   23.35    4.09    4.15   0.000   0.200   0.000    0.00
   3.410   23.04    3.18    4.33   0.000   0.200   0.000    0.00
   3.420   22.87    3.95    4.16   0.000   0.200   0.000    0.00
   3.430   23.33    4.86    3.64   0.000   0.200   0.000    0.00
   3.440   24.01    5.12    3.55   0.000   0.200   0.000    0.00
   3.450   23.90    5.31    3.07   0.000   0.200   0.000    0.00
   3.460   23.79    4.91    3.01   0.000   0.200   0.000    0.00
   3.470   23.80    4.76    2.98   0.000   0.200   0.000    0.00
   3.480   23.70    4.93    2.39   0.000   0.200   0.000    0.00
   3.490   23.62    4.50    3.05   0.000   0.200   0.000    0.00
   3.500   23.56    4.58    2.55   0.000   0.200   0.000    0.00
   3.510   23.09    5.32    2.67   0.000   0.200   0.000    0.00
   3.520   23.02    4.84    2.54   0.000   0.200   0.000    0.00
   3.530   23.33    3.03    2.75   0.000   0.200   0.000    0.00
   3.540   23.23    3.22    1.65   0.000   0.200   0.000    0.00
   3.550   23.26    4.10    1.35   0.000   0.200   0.000    0.00
   3.560   23.69    2.86    1.57   0.000   0.200   0.000    0.00
   3.570   23.87    1.95    1.37   0.000   0.200   0.000    0.00
   3.580   24.80    2.30    1.79   0.000   0.200   0.000    0.00
   3.590   24.83    3.26    1.64   0.000   0.200   0.000    0.00
   3.600   24.79    2.37    1.77   0.000   0.200   0.000    0.00
   3.610   25.13    1.86    1.84   0.000   0.200   0.000    0.00
   3.620   25.09    2.73    1.67   0.000   0.200   0.000    0.00
   3.630   24.79    3.51    1.60   0.000   0.200   0.000    0.00
   3.640   25.11    3.32    1.78   0.000   0.200   0.000    0.00
   3.650   24.57    4.00    1.09   0.000   0.200   0.000    0.00
   3.660   24.26    5.92    0.73   0.000   0.200   0.000    0.00
   3.670   24.30    6.35    0.21   0.000   0.200   0.000    0.00
   3.680   24.26    5.05    0.68   0.000   0.200   0.000    0.00
   3.690   24.77    6.20    1.02   0.000   0.200   0.000    0.00
   3.700   25.38    5.22    0.73   0.000   0.200   0.000    0.00
   3.710   25.62    6.06    0.44   0.000   0.200   0.000    0.00
   3.720   25.41    5.46    0.85   0.000   0.200   0.000    0.00
   3.730   25.25    4.94    0.82   0.000   0.200   0.000    0.00
   3.740   25.56    4.84    1.46   0.000   0.200   0.000    0.00
   3.750   25.45    4.56    1.36   0.000   0.200   0.000    0.00
   3.760   25.59    4.49    1.50   0.000   0.200   0.000    0.00
   3.770   25.35    5.41    1.71   0.000   0.200   0.000    0.00
   3.780   25.47    6.64    1.87   0.000   0.200   0.000    0.00
   3.790   25.42    6.91    2.08   0.000   0.200   0.000    0.00
   3.800   25.19    7.57    2.22   0.000   0.200   0.000    0.00
   3.810   24.93    6.57    1.97   0.000   0.200   0.000    0.00
   3.820   25.01    6.95    2.17   0.000   0.200   0.000    0.00
   3.830   25.18    7.31    2.57   0.000   0.200   0.000    0.00
   3.840   24.87    7.50    2.63   0.000   0.200   0.000    0.00
   3.850   24.46    7.12    2.77   0.000   0.200   0.000    0.00
   3.860   24.47    7.74    2.31   0.000   0.200   0.000    0.00
   3.870   24.94    7.53    1.98   0.000   0.200   0.000    0.00
   3.880   25.14    7.43    1.71   0.000   0.200   0.000    0.00
   3.890   25.26    7.61    2.44   0.000   0.200   0.000    0.00
   3.900   24.99    6.01    2.39   0.000   0.200   0.000    0.00
   3.910   25.10    5.38    2.86   0.000   0.200   0.000    0.00
   3.920   25.26    6.40    3.03   0.000   0.200   0.000    0.00
   3.930   25.21    6.68    3.26   0.000   0.200   0.000    0.00
   3.940   24.94    7.44    3.68   0.000   0.200   0.000    0.00
   3.950   24.42    7.57    3.42   0.000   0.200   0.000    0.00
   3.960   24.51    7.86    3.49   0.000   0.200   0.000    0.00
   3.970   24.57    7.79    3.45   0.000   0.200   0.000    0.00
   3.980   24.59    6.42    3.75   0.000   0.200   0.000    0.00
   3.990   24.80    5.76    3.28   0.000   0.200   0.000    0.00
   4.000   24.97    5.43    3.05   0.000   0.200   0.000    0.00
   4.010   25.45    4.51    3.82   0.000   0.200   0.000    0.00
   4.020   25.38    5.98    3.95   0.000   0.200   0.000    0.00
   4.030   25.18    5.84    3.99   0.000   0.200   0.000    0.00
   4.040   25.14    6.24    4.34   0.000   0.200   0.000    0.00
   4.050   24.90    6.01    4.15   0.000   0.200   0.000    0.00
   4.060   24.65    6.57    4.46   0.000   0.200   0.000    0.00
   4.070   24.88    5.93    5.02   0.000   0.200   0.000    0.00
   4.080   25.07    5.71    5.13   0.000   0.200   0.000    0.00
   4.090   24.88    4.54    4.80   0.000   0.200   0.000    0.00
   4.100   24.98    4.30    5.17   0.000   0.200   0.000    0.00
   4.110   25.11    4.05    5.71   0.000   0.200   0.000    0.00
   4.120   25.03    3.21    5.86   0.000   0.200   0.000    0.00
   4.130   24.86    2.23    5.21   0.000   0.200   0.000    0.00
   4.140   24.97    3.25    4.85   0.000   0.200   0.000    0.00
   4.150   25.70    3.71    4.79   0.000   0.200   0.000    0.00
   4.160   25.65    2.68    4.83   0.000   0.200   0.000    0.00
   4.170   25.86    2.96    4.32   0.000   0.200   0.000    0.00
   4.180   25.34    4.20    3.76   0.000   0.200   0.000    0.00
   4.190   24.66    4.12    3.43   0.000   0.200   0.000    0.00
   4.200   25.23    4.45    3.93   0.000   0.200   0.000    0.00
   4.210   25.45    4.88    4.16   0.000   0.200   0.000    0.00
   4.220   25.48    5.00    4.68   0.000   0.200   0.000    0.00
   4.230   25.25    4.67    4.49   0.000   0.200   0.000    0.00
   4.240   24.72    5.14    3.99   0.000   0.200   0.000    0.00
   4.250   24.84    5.60    3.90   0.000   0.200   0.000    0.00
   4.260   24.96    4.91    4.06   0.000   0.200   0.000    0.00
   4.270   25.32    7.26    4.06   0.000   0.200   0.000    0.00
   4.280   24.97    6.98    4.23   0.000   0.200   0.000    0.00
   4.290   25.11    6.93    4.10   0.000   0.200   0.000    0.00
   4.300   25.22    6.94    4.06   0.000   0.200   0.000    0.00
   4.310   25.30    7.17    4.07   0.000   0.200   0.000    0.00
   4.320   25.63    7.22    3.94   0.000   0.200   0.000    0.00
   4.330   25.85    5.91    3.96   0.000   0.200   0.000    0.00
   4.340   26.04    5.92    3.99   0.000   0.200   0.000    0.00
   4.350   25.47    6.13    4.04   0.000   0.200   0.000    0.00
   4.360   25.36    6.49    3.98   0.000   0.200   0.000    0.00
   4.370   25.25    6.03    4.26   0.000   0.200   0.000    0.00
   4.380   25.86    5.19    4.64   0.000   0.200   0.000    0.00
   4.390   25.35    4.79    4.24   0.000   0.200   0.000    0.00
   4.400   25.01    3.06    4.06   0.000   0.200   0.000    0.00
   4.410   25.22    3.19    4.41   0.000   0.200   0.000    0.00
   4.420   25.60    3.17    3.61   0.000   0.200   0.000    0.00
   4.430   26.31    4.27    3.15   0.000   0.200   0.000    0.00
   4.440   26.04    4.89    3.44   0.000   0.200   0.000    0.00
   4.450   25.59    5.67    3.23   0.000   0.200   0.000    0.00
   4.460   25.91    5.88    2.91   0.000   0.200   0.000    0.00
   4.470   26.12    4.56    2.77   0.000   0.200   0.000    0.00
   4.480   26.53    4.90    2.76   0.000   0.200   0.000    0.00
   4.490   26.35    5.48    2.56   0.000   0.200   0.000    0.00
   4.500   25.65    5.70    2.78   0.000   0.200   0.000    0.00
   4.510   25.30    7.41    3.13   0.000   0.200   0.000    0.00
   4.520   25.41    6.52    2.78   0.000   0.200   0.000    0.00
   4.530   25.62    4.96    3.37   0.000   0.200   0.000    0.00
   4.540   25.53    4.84    3.29   0.000   0.200   0.000    0.00