! This hub-height wind-speed file was generated by TurbSim (from OpenFAST--128-NOTFOUND) on 23-Aug-2023 at 09:41:13.
!
! The requested statistics for this data were:
!    Mean Total Wind Speed =   20.000 m/s
!    Turbulence Intensity  =   14.420%
!
!   Time  HorSpd  WndDir  VerSpd  HorShr  VerShr  LnVShr  GstSpd
!  (sec)   (m/s)   (deg)   (m/s)     (-)     (-)     (-)   (m/s)
   0.000   19.04   -1.51    0.85   0.000   0.200   0.000    0.00
   0.010   18.92   -1.53    0.56   0.000   0.200   0.000    0.00
   0.020   19.22   -2.81    0.86   0.000   0.200   0.000    0.00
   0.030   19.49   -3.68    1.77   0.000   0.200   0.000    0.00
   0.040   19.34   -2.13    1.59   0.000   0.200   0.000    0.00
   0.050   19.78   -1.72    2.52   0.000   0.200   0.000    0.00
   0.060   19.95   -1.42    2.62   0.000   0.200   0.000    0.00
   0.070   20.04   -1.61    2.85   0.000   0.200   0.000    0.00
   0.080   20.05   -0.90    3.09   0.000   0.200   0.000    0.00
   0.090   20.57   -2.28    3.32   0.000   0.200   0.000    0.00
   0.100   20.09   -0.77    3.50   0.000   0.200   0.000    0.00
   0.110   20.26   -0.56    3.11   0.000   0.200   0.000    0.00
   0.120   19.60    0.42    3.22   0.000   0.200   0.000    0.00
   0.130   19.79    1.40    3.76   0.000   0.200   0.000    0.00
   0.140   19.83    1.24    3.53   0.000   0.200   0.000    0.00
   0.150   19.90    0.71    3.48   0.000   0.200   0.000    0.00
   0.160   20.25    2.64    3.15   0.000   0.200   0.000    0.00
   0.170   20.21    4.46    3.51   0.000   0.200   0.000    0.00
   0.180   19.94    3.23    3.54   0.000   0.200   0.000    0.00
   0.190   19.72    3.29    3.59   0.000   0.200   0.000    0.00
   0.200   19.97    3.09    3.55   0.000   0.200   0.000    0.00
   0.210   19.44    2.97    3.59   0.000   0.200   0.000    0.00
   0.220   19.48    4.49    4.74   0.000   0.200   0.000    0.00
   0.230   19.38    5.05    4.58   0.000   0.200   0.000    0.00
   0.240   19.73    5.32    4.41   0.000   0.200   0.000    0.00
   0.250   19.53    3.76    4.29   0.000   0.200   0.000    0.00
   0.260   19.43    3.69    4.47   0.000   0.200   0.000    0.00
   0.270   19.35    2.60    4.98   0.000   0.200   0.000    0.00
   0.280   19.29    2.11    5.06   0.000   0.200   0.000    0.00
   0.290   19.17    1.57    5.24   0.000   0.200   0.000    0.00
   0.300   19.54    1.17    5.02   0.000   0.200   0.000    0.00
   0.310   19.39    2.32    4.48   0.000   0.200   0.000    0.00
   0.320   19.82    0.91    4.48   0.000   0.200   0.000    0.00
   0.330   20.07   -1.90    4.65   0.000   0.200   0.000    0.00
   0.340   19.74   -1.73    4.56   0.000   0.200   0.000    0.00
   0.350   18.65    0.75    4.61   0.000   0.200   0.000    0.00
   0.360   18.94   -0.02    4.63   0.000   0.200   0.000    0.00
   0.370   18.83    1.48    4.59   0.000   0.200   0.000    0.00
   0.380   18.77    2.01    4.25   0.000   0.200   0.000    0.00
   0.390   19.05    1.14    4.01   0.000   0.200   0.000    0.00
   0.400   18.92    1.02    3.27   0.000   0.200   0.000    0.00
   0.410   19.19   -0.27    3.17   0.000   0.200   0.000    0.00
   0.420   19.41    0.10    2.77   0.000   0.200   0.000    0.00
   0.430   19.25    1.52    3.19   0.000   0.200   0.000    0.00
   0.440   19.41    1.59    3.58   0.000   0.200   0.000    0.00
   0.450   19.31    1.68    3.38   0.000   0.200   0.000    0.00
   0.460   19.24    0.29    3.19   0.000   0.200   0.000    0.00
   0.470   19.45   -0.36    4.04   0.000   0.200   0.000    0.00
   0.480   19.61    0.51    3.97   0.000   0.200   0.000    0.00
   0.490   19.80   -0.86    3.94   0.000   0.200   0.000    0.00
   0.500   19.96   -1.95    4.07   0.000   0.200   0.000    0.00
   0.510   19.92   -0.99    4.74   0.000   0.200   0.000    0.00
   0.520   19.97   -1.01    5.29   0.000   0.200   0.000    0.00
   0.530   19.59   -1.13    5.02   0.000   0.200   0.000    0.00
   0.540   19.73   -1.19    4.49   0.000   0.200   0.000    0.00
   0.550   19.74   -1.08    4.86   0.000   0.200   0.000    0.00
   0.560   19.74    0.31    4.87   0.000   0.200   0.000    0.00
   0.570   19.45    1.26    4.61   0.000   0.200   0.000    0.00
   0.580   19.29    1.02    4.36   0.000   0.200   0.000    0.00
   0.590   19.69    1.31    3.89   0.000   0.200   0.000    0.00
   0.600   19.73    0.44    3.85   0.000   0.200   0.000    0.00
   0.610   19.98   -1.51    4.30   0.000   0.200   0.000    0.00
   0.620   20.44   -1.83    4.50   0.000   0.200   0.000    0.00
   0.630   20.16   -1.73    3.86   0.000   0.200   0.000    0.00
   0.640   19.61   -0.84    3.69   0.000   0.200   0.000    0.00
   0.650   19.99   -0.21    3.91   0.000   0.200   0.000    0.00
   0.660   20.24    0.63    3.85   0.000   0.200   0.000    0.00
   0.670   20.05    0.12    3.10   0.000   0.200   0.000    0.00
   0.680   19.75   -0.11    2.64   0.000   0.200   0.000    0.00
   0.690   19.08   -1.52    2.55   0.000   0.200   0.000    0.00
   0.700   19.24   -0.57    2.68   0.000   0.200   0.000    0.00
   0.710   18.64   -0.96    2.54   0.000   0.200   0.000    0.00
   0.720   18.21    0.95    2.34   0.000   0.200   0.000    0.00
   0.730   18.99    2.60    2.73   0.000   0.200   0.000    0.00
   0.740   19.32    2.13    2.39   0.000   0.200   0.000    0.00
   0.750   19.18    0.50    2.88   0.000   0.200   0.000    0.00
   0.760   19.71    0.31    3.29   0.000   0.200   0.000    0.00
   0.770   19.91   -0.01    2.94   0.000   0.200   0.000    0.00
   0.780   20.42    1.68    2.57   0.000   0.200   0.000    0.00
   0.790   20.50    1.69    2.04   0.000   0.200   0.000    0.00
   0.800   21.07    1.72    2.32   0.000   0.200   0.000    0.00
   0.810   21.60   -0.25    2.73   0.000   0.200   0.000    0.00
   0.820   21.25   -1.46    2.36   0.000   0.200   0.000    0.00
   0.830   21.60   -1.01    2.70   0.000   0.200   0.000    0.00
   0.840   22.14   -0.51    3.17   0.000   0.200   0.000    0.00
   0.850   21.69   -1.05    2.71   0.000   0.200   0.000    0.00
   0.860   21.84    0.46    2.05   0.000   0.200   0.000    0.00
   0.870   22.31    0.49    2.09   0.000   0.200   0.000    0.00
   0.880   22.10    0.69    2.27   0.000   0.200   0.000    0.00
   0.890   22.13    0.05    2.13   0.000   0.200   0.000    0.00
   0.900   21.64    0.49    2.53   0.000   0.200   0.000    0.00
   0.910   21.50   -0.30    2.31   0.000   0.200   0.000    0.00
   0.920   21.13   -1.49    2.28   0.000   0.200   0.000    0.00
   0.930   21.02   -2.85    2.50   0.000   0.200   0.000    0.00
   0.940   21.28   -3.77    2.35   0.000   0.200   0.000    0.00
   0.950   20.86   -3.54    2.61   0.000   0.200   0.000    0.00
   0.960   20.95   -3.88    2.85   0.000   0.200   0.000    0.00
   0.970   20.96   -4.52    3.05   0.000   0.200   0.000    0.00
   0.980   21.08   -4.48    2.50   0.000   0.200   0.000    0.00
   0.990   21.06   -5.12    2.71   0.000   0.200   0.000    0.00
   1.000   21.47   -5.19    3.33   0.000   0.200   0.000    0.00
   1.010   21.48   -6.84    3.24   0.000   0.200   0.000    0.00
   1.020   21.56   -7.73    2.50   0.000   0.200   0.000    0.00
   1.030   21.33   -7.02    2.58   0.000   0.200   0.000    0.00
   1.040   21.33   -6.29    2.30   0.000   0.200   0.000    0.00
   1.050   21.35   -6.20    2.68   0.000   0.200   0.000    0.00
   1.060   21.70   -4.81    2.86   0.000   0.200   0.000    0.00
   1.070   21.65   -5.18    2.89   0.000   0.200   0.000    0.00
   1.080   21.79   -5.76    2.40   0.000   0.200   0.000    0.00
   1.090   22.15   -5.89    2.79   0.000   0.200   0.000    0.00
   1.100   22.19   -5.91    3.09   0.000   0.200   0.000    0.00
   1.110   21.78   -6.61    3.74   0.000   0.200   0.000    0.00
   1.120   21.47   -4.79    3.75   0.000   0.200   0.000    0.00
   1.130   21.62   -4.01    3.72   0.000   0.200   0.000    0.00
   1.140   21.54   -3.53    3.64   0.000   0.200   0.000    0.00
   1.150   21.37   -3.70    3.59   0.000   0.200   0.000    0.00
   1.160   21.15   -4.55    4.08   0.000   0.200   0.000    0.00
   1.170   20.69   -3.05    4.12   0.000   0.200   0.000    0.00
   1.180   20.62   -2.46    4.22   0.000   0.200   0.000    0.00
   1.190   20.51   -2.40    3.94   0.000   0.200   0.000    0.00
   1.200   20.62   -2.84    4.18   0.000   0.200   0.000    0.00
   1.210   20.57   -1.47    4.12   0.000   0.200   0.000    0.00
   1.220   20.67   -5.14    4.43   0.000   0.200   0.000    0.00
   1.230   20.71   -7.19    4.28   0.000   0.200   0.000    0.00
   1.240   20.63   -6.16    4.14   0.000   0.200   0.000    0.00
   1.250   20.68   -4.70    3.82   0.000   0.200   0.000    0.00
   1.260   20.55   -5.58    4.04   0.000   0.200   0.000    0.00
   1.270   20.61   -5.78    4.03   0.000   0.200   0.000    0.00
   1.280   20.97   -6.31    3.91   0.000   0.200   0.000    0.00
   1.290   21.12   -6.71    4.07   0.000   0.200   0.000    0.00
   1.300   21.01   -7.96    3.58   0.000   0.200   0.000    0.00
   1.310   21.20   -7.71    3.54   0.000   0.200   0.000    0.00
   1.320   21.09   -7.81    2.92   0.000   0.200   0.000    0.00
   1.330   20.88   -7.96    2.25   0.000   0.200   0.000    0.00
   1.340   21.23   -6.35    2.08   0.000   0.200   0.000    0.00
   1.350   20.71   -6.16    2.16   0.000   0.200   0.000    0.00
   1.360   21.16   -4.43    2.28   0.000   0.200   0.000    0.00
   1.370   21.97   -4.54    2.55   0.000   0.200   0.000    0.00
   1.380   21.57   -5.40    3.04   0.000   0.200   0.000    0.00
   1.390   21.37   -3.37    2.67   0.000   0.200   0.000    0.00
   1.400   21.26   -3.94    2.07   0.000   0.200   0.000    0.00
   1.410   20.99   -4.69    1.73   0.000   0.200   0.000    0.00
   1.420   21.60   -3.09    1.66   0.000   0.200   0.000    0.00
   1.430   21.07   -2.00    0.88   0.000   0.200   0.000    0.00
   1.440   20.96   -2.01    1.20   0.000   0.200   0.000    0.00
   1.450   20.90   -1.96    1.35   0.000   0.200   0.000    0.00
   1.460   20.12   -0.79    0.74   0.000   0.200   0.000    0.00
   1.470   20.29    1.47    0.15   0.000   0.200   0.000    0.00
   1.480   20.34    0.88    0.50   0.000   0.200   0.000    0.00
   1.490   20.32    0.80    0.26   0.000   0.200   0.000    0.00
   1.500   20.04   -0.29    0.39   0.000   0.200   0.000    0.00
   1.510   20.77   -0.69   -0.01   0.000   0.200   0.000    0.00
   1.520   20.97   -0.72    0.28   0.000   0.200   0.000    0.00
   1.530   20.93   -0.88    0.14   0.000   0.200   0.000    0.00
   1.540   21.12   -0.58    0.43   0.000   0.200   0.000    0.00
   1.550   20.92   -1.08    0.14   0.000   0.200   0.000    0.00
   1.560   21.44   -1.30    0.39   0.000   0.200   0.000    0.00
   1.570   21.00   -1.46    0.97   0.000   0.200   0.000    0.00
   1.580   20.65   -0.53    1.18   0.000   0.200   0.000    0.00
   1.590   20.27   -0.78    1.29   0.000   0.200   0.000    0.00
   1.600   20.59   -1.62    0.87   0.000   0.200   0.000    0.00
   1.610   20.86   -3.15    0.22   0.000   0.200   0.000    0.00
   1.620   20.34   -3.23   -0.07   0.000   0.200   0.000    0.00
   1.630   20.20   -3.19    0.00   0.000   0.200   0.000    0.00
   1.640   20.09   -2.75   -0.50   0.000   0.200   0.000    0.00
   1.650   19.96   -2.07   -0.42   0.000   0.200   0.000    0.00
   1.660   20.27   -0.92   -0.61   0.000   0.200   0.000    0.00
   1.670   20.31   -1.27   -0.35   0.000   0.200   0.000    0.00
   1.680   20.65   -2.55    0.22   0.000   0.200   0.000    0.00
   1.690   20.66   -3.09    0.19   0.000   0.200   0.000    0.00
   1.700   20.67   -4.45    0.46   0.000   0.200   0.000    0.00
   1.710   21.36   -3.40    0.05   0.000   0.200   0.000    0.00
   1.720   21.42   -2.48    0.34   0.000   0.200   0.000    0.00
   1.730   21.35   -1.93    0.09   0.000   0.200   0.000    0.00
   1.740   20.97   -1.56   -0.05   0.000   0.200   0.000    0.00
   1.750   20.64   -1.80    0.06   0.000   0.200   0.000    0.00
   1.760   20.40   -1.66    0.01   0.000   0.200   0.000    0.00
   1.770   20.84   -0.42    0.39   0.000   0.200   0.000    0.00
   1.780   21.18    0.03    0.61   0.000   0.200   0.000    0.00
   1.790   21.19    0.26    0.72   0.000   0.200   0.000    0.00
   1.800   21.34   -0.41    0.97   0.000   0.200   0.000    0.00
   1.810   21.46    0.25    0.22   0.000   0.200   0.000    0.00
   1.820   22.03    0.61   -0.22   0.000   0.200   0.000    0.00
   1.830   22.15    0.74    0.35   0.000   0.200   0.000    0.00
   1.840   21.90   -0.51    0.94   0.000   0.200   0.000    0.00
   1.850   22.25    0.01    1.16   0.000   0.200   0.000    0.00
   1.860   22.50    1.77    0.91   0.000   0.200   0.000    0.00
   1.870   21.66    3.02    0.66   0.000   0.200   0.000    0.00
   1.880   21.58    3.45    0.87   0.000   0.200   0.000    0.00
   1.890   21.17    2.21    1.59   0.000   0.200   0.000    0.00
   1.900   21.18    3.50    1.21   0.000   0.200   0.000    0.00
   1.910   21.09    3.74    1.13   0.000   0.200   0.000    0.00
   1.920   21.10    5.68    0.99   0.000   0.200   0.000    0.00
   1.930   20.78    3.98    1.43   0.000   0.200   0.000    0.00
   1.940   20.41    3.42    1.70   0.000   0.200   0.000    0.00
   1.950   20.52    4.22    1.53   0.000   0.200   0.000    0.00
   1.960   20.23    3.41    1.30   0.000   0.200   0.000    0.00
   1.970   20.49    4.41    2.01   0.000   0.200   0.000    0.00
   1.980   20.88    4.46    1.82   0.000   0.200   0.000    0.00
   1.990   21.00    3.95    1.45   0.000   0.200   0.000    0.00
   2.000   21.52    4.23    1.41   0.000   0.200   0.000    0.00
   2.010   21.01    6.22    1.41   0.000   0.200   0.000    0.00
   2.020   21.73    6.00    0.72   0.000   0.200   0.000    0.00
   2.030   21.49    5.76    0.83   0.000   0.200   0.000    0.00
   2.040   21.28    6.72    1.16   0.000   0.200   0.000    0.00
   2.050   21.17    7.79    1.33   0.000   0.200   0.000    0.00
   2.060   21.25    6.59    1.52   0.000   0.200   0.000    0.00
   2.070   20.94    5.95    1.37   0.000   0.200   0.000    0.00
   2.080   20.81    6.48    1.50   0.000   0.200   0.000    0.00
   2.090   21.12    7.20    1.70   0.000   0.200   0.000    0.00
   2.100   20.95    7.59    1.60   0.000   0.200   0.000    0.00
   2.110   20.75    7.98    1.86   0.000   0.200   0.000    0.00
   2.120   20.95    7.06    1.87   0.000   0.200   0.000    0.00
   2.130   21.14    5.43    2.14   0.000   0.200   0.000    0.00
   2.140   21.41    3.77    1.91   0.000   0.200   0.000    0.00
   2.150   21.06    4.08    1.66   0.000   0.200   0.000    0.00
   2.160   21.24    4.17    2.03   0.000   0.200   0.000    0.00
   2.170   21.26    4.87    2.28   0.000   0.200   0.000    0.00
   2.180   21.85    4.60    2.01   0.000   0.200   0.000    0.00
   2.190   22.68    4.48    2.04   0.000   0.200   0.000    0.00
   2.200   23.07    6.12    2.27   0.000   0.200   0.000    0.00
   2.210   22.85    5.74    2.64   0.000   0.200   0.000    0.00
   2.220   22.90    5.56    2.21   0.000   0.200   0.000    0.00
   2.230   22.68    6.97    1.96   0.000   0.200   0.000    0.00
   2.240   21.94    6.36    2.01   0.000   0.200   0.000    0.00
   2.250   22.13    7.30    2.21   0.000   0.200   0.000    0.00
   2.260   22.62    6.07    1.95   0.000   0.200   0.000    0.00
   2.270   22.65    5.75    1.86   0.000   0.200   0.000    0.00
   2.280   22.66    5.74    1.71   0.000   0.200   0.000    0.00
   2.290   22.61    5.28    1.74   0.000   0.200   0.000    0.00
   2.300   22.44    4.23    1.14   0.000   0.200   0.000    0.00
   2.310   22.46    2.90    0.63   0.000   0.200   0.000    0.00
   2.320   22.61    3.37    0.10   0.000   0.200   0.000    0.00
   2.330   22.26    3.52   -0.02   0.000   0.200   0.000    0.00
   2.340   21.71    5.15    0.46   0.000   0.200   0.000    0.00
   2.350   22.04    4.11    0.46   0.000   0.200   0.000    0.00
   2.360   22.22    3.76    1.13   0.000   0.200   0.000    0.00
   2.370   22.26    4.46    1.57   0.000   0.200   0.000    0.00
   2.380   22.78    5.60    1.47   0.000   0.200   0.000    0.00
   2.390   22.28    6.05    1.45   0.000   0.200   0.000    0.00
   2.400   22.40    7.63    1.63   0.000   0.200   0.000    0.00
   2.410   22.39    7.14    1.42   0.000   0.200   0.000    0.00
   2.420   22.42    6.30    2.35   0.000   0.200   0.000    0.00
   2.430   23.07    5.66    2.41   0.000   0.200   0.000    0.00
   2.440   23.09    5.95    2.47   0.000   0.200   0.000    0.00
   2.450   22.99    5.42    2.87   0.000   0.200   0.000    0.00
   2.460   23.50    5.41    2.89   0.000   0.200   0.000    0.00
   2.470   23.73    5.35    3.03   0.000   0.200   0.000    0.00
   2.480   23.38    4.68    2.48   0.000   0.200   0.000    0.00
   2.490   23.64    5.57    2.23   0.000   0.200   0.000    0.00
   2.500   23.11    6.63    2.14   0.000   0.200   0.000    0.00
   2.510   23.46    5.40    1.86   0.000   0.200   0.000    0.00
   2.520   23.41    5.14    1.98   0.000   0.200   0.000    0.00
   2.530   23.16    6.11    2.14   0.000   0.200   0.000    0.00
   2.540   23.42    5.70    2.34   0.000   0.200   0.000    0.00
   2.550   23.13    6.25    2.21   0.000   0.200   0.000    0.00
   2.560   22.52    6.95    2.52   0.000   0.200   0.000    0.00
   2.570   22.17    4.91    2.34   0.000   0.200   0.000    0.00
   2.580   22.41    6.41    3.05   0.000   0.200   0.000    0.00
   2.590   22.64    6.92    2.89   0.000   0.200   0.000    0.00
   2.600   22.93    6.79    2.67   0.000   0.200   0.000    0.00
   2.610   22.59    4.54    2.05   0.000   0.200   0.000    0.00
   2.620   22.76    3.92    2.18   0.000   0.200   0.000    0.00
   2.630   22.76    3.61    2.70   0.000   0.200   0.000    0.00
   2.640   22.76    2.84    2.37   0.000   0.200   0.000    0.00
   2.650   22.62    3.52    2.55   0.000   0.200   0.000    0.00
   2.660   22.62    3.58    2.95   0.000   0.200   0.000    0.00
   2.670   22.80    4.59    2.81   0.000   0.200   0.000    0.00
   2.680   22.79    6.33    3.15   0.000   0.200   0.000    0.00
   2.690   23.06    6.51    2.89   0.000   0.200   0.000    0.00
   2.700   23.19    3.91    2.48   0.000   0.200   0.000    0.00
   2.710   23.32    4.57    2.47   0.000   0.200   0.000    0.00
   2.720   23.16    4.63    2.57   0.000   0.200   0.000    0.00
   2.730   22.90    3.18    2.54   0.000   0.200   0.000    0.00
   2.740   22.72    2.61    1.53   0.000   0.200   0.000    0.00
   2.750   22.65    3.53    1.52   0.000   0.200   0.000    0.00
   2.760   22.36    3.09    1.33   0.000   0.200   0.000    0.00
   2.770   22.45    2.57    1.09   0.000   0.200   0.000    0.00
   2.780   22.67    1.82    1.48   0.000   0.200   0.000    0.00
   2.790   22.52    1.46    1.58   0.000   0.200   0.000    0.00
   2.800   22.52    2.04    1.30   0.000   0.200   0.000    0.00
   2.810   22.93    3.10    0.71   0.000   0.200   0.000    0.00
   2.820   23.59    1.60    0.34   0.000   0.200   0.000    0.00
   2.830   24.54    1.36    0.54   0.000   0.200   0.000    0.00
   2.840   23.63    0.57    1.15   0.000   0.200   0.000    0.00
   2.850   23.28    1.71    1.74   0.000   0.200   0.000    0.00
   2.860   23.57    1.72    1.55   0.000   0.200   0.000    0.00
   2.870   23.13    0.84    1.10   0.000   0.200   0.000    0.00
   2.880   23.62   -0.19    1.86   0.000   0.200   0.000    0.00
   2.890   23.96    0.18    1.92   0.000   0.200   0.000    0.00
   2.900   24.41    0.04    1.59   0.000   0.200   0.000    0.00
   2.910   24.25   -0.18    1.84   0.000   0.200   0.000    0.00
   2.920   24.63    0.90    1.72   0.000   0.200   0.000    0.00
   2.930   24.60    1.07    1.15   0.000   0.200   0.000    0.00
   2.940   24.28    0.93    0.66   0.000   0.200   0.000    0.00
   2.950   24.80    0.23    1.31   0.000   0.200   0.000    0.00
   2.960   24.87    0.43    0.92   0.000   0.200   0.000    0.00
   2.970   24.46   -0.07    1.18   0.000   0.200   0.000    0.00
   2.980   23.95   -0.69    0.82   0.000   0.200   0.000    0.00
   2.990   23.87   -0.52    1.00   0.000   0.200   0.000    0.00
   3.000   24.16   -0.45    0.38   0.000   0.200   0.000    0.00
   3.010   23.92   -0.31    0.42   0.000   0.200   0.000    0.00
   3.020   23.86   -1.84    0.51   0.000   0.200   0.000    0.00
   3.030   24.04   -3.39    0.89   0.000   0.200   0.000    0.00
   3.040   23.22   -1.68    0.89   0.000   0.200   0.000    0.00
   3.050   23.49    0.94    0.39   0.000   0.200   0.000    0.00
   3.060   23.87   -0.65    0.45   0.000   0.200   0.000    0.00
   3.070   24.26   -1.22   -0.14   0.000   0.200   0.000    0.00
   3.080   24.27   -0.87    0.03   0.000   0.200   0.000    0.00
   3.090   24.13   -0.84    0.37   0.000   0.200   0.000    0.00
   3.100   23.82   -0.66    0.34   0.000   0.200   0.000    0.00
   3.110   24.10   -2.80    0.22   0.000   0.200   0.000    0.00
   3.120   24.04   -3.28    0.15   0.000   0.200   0.000    0.00
   3.130   24.40   -3.67    0.21   0.000   0.200   0.000    0.00
   3.140   24.60   -2.99    0.23   0.000   0.200   0.000    0.00
   3.150   24.65   -2.17   -0.09   0.000   0.200   0.000    0.00
   3.160   24.30   -2.80   -0.21   0.000   0.200   0.000    0.00
   3.170   24.37   -3.82   -0.10   0.000   0.200   0.000    0.00
   3.180   24.69   -3.45   -0.21   0.000   0.200   0.000    0.00
   3.190   24.78   -3.68    0.08   0.000   0.200   0.000    0.00
   3.200   24.86   -4.48   -0.29   0.000   0.200   0.000    0.00
   3.210   24.55   -4.17    0.15   0.000   0.200   0.000    0.00
   3.220   24.70   -3.20   -0.13   0.000   0.200   0.000    0.00
   3.230   24.78   -2.57   -0.33   0.000   0.200   0.000    0.00
   3.240   24.92   -1.83    0.79   0.000   0.200   0.000    0.00
   3.250   24.97    0.09    0.19   0.000   0.200   0.000    0.00
   3.260   24.89    0.18    0.37   0.000   0.200   0.000    0.00
   3.270   24.74   -0.45   -0.14   0.000   0.200   0.000    0.00
   3.280   24.21   -1.99   -0.52   0.000   0.200   0.000    0.00
   3.290   23.93   -1.32   -0.14   0.000   0.200   0.000    0.00
   3.300   23.61    0.09    0.12   0.000   0.200   0.000    0.00
   3.310   23.70   -0.65   -0.32   0.000   0.200   0.000    0.00
   3.320   23.55   -1.30   -0.02   0.000   0.200   0.000    0.00
   3.330   23.53   -0.07    0.14   0.000   0.200   0.000    0.00
   3.340   23.56   -0.87    0.67   0.000   0.200   0.000    0.00
   3.350   23.59   -2.53    0.35   0.000   0.200   0.000    0.00
   3.360   23.54   -2.78   -0.45   0.000   0.200   0.000    0.00
   3.370   23.16   -1.77   -0.03   0.000   0.200   0.000    0.00
   3.380   23.44    0.89    0.03   0.000   0.200   0.000    0.00
   3.390   23.59    0.75    0.29   0.000   0.200   0.000    0.00
   3.400   23.87    1.09    0.51   0.000   0.200   0.000    0.00
   3.410   24.02    0.80    0.90   0.000   0.200   0.000    0.00
   3.420   24.27    1.39    0.94   0.000   0.200   0.000    0.00
   3.430   24.17   -0.08    1.65   0.000   0.200   0.000    0.00
   3.440   24.17    1.27    2.08   0.000   0.200   0.000    0.00
   3.450   24.47    0.93    1.99   0.000   0.200   0.000    0.00
   3.460   24.17    1.92    2.07   0.000   0.200   0.000    0.00
   3.470   23.56    2.06    1.98   0.000   0.200   0.000    0.00
   3.480   23.37    1.99    1.93   0.000   0.200   0.000    0.00
   3.490   23.04    2.10    2.11   0.000   0.200   0.000    0.00
   3.500   22.52    1.56    2.44   0.000   0.200   0.000    0.00
   3.510   22.69    1.65    2.45   0.000   0.200   0.000    0.00
   3.520   22.54    0.55    2.28   0.000   0.200   0.000    0.00
   3.530   22.48    0.61    2.24   0.000   0.200   0.000    0.00
   3.540   22.45    0.68    1.83   0.000   0.200   0.000    0.00
   3.550   22.60    1.35    2.66   0.000   0.200   0.000    0.00
   3.560   22.67    0.84    2.74   0.000   0.200   0.000    0.00
   3.570   22.28    0.83    2.49   0.000   0.200   0.000    0.00
   3.580   22.09    2.82    2.10   0.000   0.200   0.000    0.00
   3.590   22.35    2.35    2.42   0.000   0.200   0.000    0.00
   3.600   21.76    2.91    2.08   0.000   0.200   0.000    0.00
   3.610   21.65    0.62    2.22   0.000   0.200   0.000    0.00
   3.620   21.70    0.49    2.08   0.000   0.200   0.000    0.00
   3.630   21.60    1.51    2.32   0.000   0.200   0.000    0.00
   3.640   21.00    2.25    2.04   0.000   0.200   0.000    0.00
   3.650   20.74    1.98    1.38   0.000   0.200   0.000    0.00
   3.660   20.74    4.63    1.26   0.000   0.200   0.000    0.00
   3.670   20.38    4.13    0.80   0.000   0.200   0.000    0.00
   3.680   20.39    3.08    0.49   0.000   0.200   0.000    0.00
   3.690   20.17    3.45    0.39   0.000   0.200   0.000    0.00
   3.700   19.98    2.64    0.54   0.000   0.200   0.000    0.00
   3.710   20.13    2.41    0.72   0.000   0.200   0.000    0.00
   3.720   20.01    3.32    0.49   0.000   0.200   0.000    0.00
   3.730   20.18    0.78    0.16   0.000   0.200   0.000    0.00
   3.740   20.91    0.03   -0.47   0.000   0.200   0.000    0.00
   3.750   21.03    0.93   -0.33   0.000   0.200   0.000    0.00
   3.760   20.78    0.62   -0.42   0.000   0.200   0.000    0.00
   3.770   20.54    0.01   -0.30   0.000   0.200   0.000    0.00
   3.780   20.50    0.71   -0.38   0.000   0.200   0.000    0.00
   3.790   20.75    0.64   -0.29   0.000   0.200   0.000    0.00
   3.800   21.22   -0.86   -0.54   0.000   0.200   0.000    0.00
   3.810   20.91   -1.91   -0.70   0.000   0.200   0.000    0.00
   3.820   21.03   -3.24   -0.50   0.000   0.200   0.000    0.00
   3.830   20.95   -3.43    0.01   0.000   0.200   0.000    0.00
   3.840   21.42   -1.62   -0.02   0.000   0.200   0.000    0.00
   3.850   21.38   -1.77   -0.01   0.000   0.200   0.000    0.00
   3.860   22.03   -2.80    0.58   0.000   0.200   0.000    0.00
   3.870   21.79   -0.02    0.42   0.000   0.200   0.000    0.00
   3.880   21.67    2.03    0.59   0.000   0.200   0.000    0.00
   3.890   22.04    1.42    1.01   0.000   0.200   0.000    0.00
   3.900   21.89    1.76    1.10   0.000   0.200   0.000    0.00
   3.910   22.24    1.22    1.51   0.000   0.200   0.000    0.00
   3.920   22.17    0.38    0.82   0.000   0.200   0.000    0.00
   3.930   22.17    1.59    0.84   0.000   0.200   0.000    0.00
   3.940   22.47    1.59    1.32   0.000   0.200   0.000    0.00
   3.950   22.83    2.27    1.15   0.000   0.200   0.000    0.00
   3.960   22.93    4.11    1.06   0.000   0.200   0.000    0.00
   3.970   23.16    4.06    0.63   0.000   0.200   0.000    0.00
   3.980   23.06    3.10    0.52   0.000   0.200   0.000    0.00
   3.990   22.97    4.22   -0.35   0.000   0.200   0.000    0.00
   4.000   23.43    5.78    0.05   0.000   0.200   0.000    0.00
   4.010   23.87    5.08    0.32   0.000   0.200   0.000    0.00
   4.020   24.09    4.81    0.35   0.000   0.200   0.000    0.00
   4.030   24.01    5.38   -0.15   0.000   0.200   0.000    0.00
   4.040   23.63    6.34   -0.06   0.000   0.200   0.000    0.00
   4.050   23.88    6.43   -0.80   0.000   0.200   0.000    0.00
   4.060   23.79    5.97   -0.77   0.000   0.200   0.000    0.00
   4.070   24.11    5.55   -0.75   0.000   0.200   0.000    0.00
   4.080   24.33    4.71   -0.56   0.000   0.200   0.000    0.00
   4.090   24.70    5.49    0.05   0.000   0.200   0.000    0.00
   4.100   24.32    4.98   -0.02   0.000   0.200   0.000    0.00
   4.110   23.97    6.16    0.20   0.000   0.200   0.000    0.00
   4.120   24.14    6.01    0.47   0.000   0.200   0.000    0.00
   4.130   24.03    7.64    0.17   0.000   0.200   0.000    0.00
   4.140   23.85    7.10    0.23   0.000   0.200   0.000    0.00
   4.150   23.84    5.81   -0.10   0.000   0.200   0.000    0.00
   4.160   23.81    3.67   -0.11   0.000   0.200   0.000    0.00
   4.170   24.22    4.72   -0.18   0.000   0.200   0.000    0.00
   4.180   24.25    4.75   -0.63   0.000   0.200   0.000    0.00
   4.190   24.51    4.11   -0.52   0.000   0.200   0.000    0.00
   4.200   23.87    3.01   -0.22   0.000   0.200   0.000    0.00
   4.210   23.33    4.39    0.54   0.000   0.200   0.000    0.00
   4.220   23.53    6.24    0.80   0.000   0.200   0.000    0.00
   4.230   23.73    6.20    0.21   0.000   0.200   0.000    0.00
   4.240   23.98    5.59    0.11   0.000   0.200   0.000    0.00
   4.250   24.05    6.01    0.73   0.000   0.200   0.000    0.00
   4.260   23.96    5.09    0.87   0.000   0.200   0.000    0.00
   4.270   24.88    6.21    0.50   0.000   0.200   0.000    0.00
   4.280   24.75    5.71    1.14   0.000   0.200   0.000    0.00
   4.290   24.75    6.00    1.12   0.000   0.200   0.000    0.00
   4.300   24.80    4.79    1.14   0.000   0.200   0.000    0.00
   4.310   24.81    4.62    1.35   0.000   0.200   0.000    0.00
   4.320   24.77    3.03    1.30   0.000   0.200   0.000    0.00
   4.330   24.52    2.86    1.35   0.000   0.200   0.000    0.00
   4.340   24.13    4.33    1.55   0.000   0.200   0.000    0.00
   4.350   24.24    5.49    1.09   0.000   0.200   0.000    0.00
   4.360   24.56    5.10    0.73   0.000   0.200   0.000    0.00
   4.370   24.82    4.78    0.43   0.000   0.200   0.000    0.00
   4.380   24.47    5.24    0.36   0.000   0.200   0.000    0.00
   4.390   24.34    4.32   -0.41   0.000   0.200   0.000    0.00
   4.400   24.58    3.54   -0.44   0.000   0.200   0.000    0.00
   4.410   24.62    3.73   -0.08   0.000   0.200   0.000    0.00
   4.420   24.31    4.70    0.18   0.000   0.200   0.000    0.00
   4.430   24.86    6.97   -0.18   0.000   0.200   0.000    0.00
   4.440   25.05    7.19    0.25   0.000   0.200   0.000    0.00
   4.450   24.79    5.23    0.51   0.000   0.200   0.000    0.00
   4.460   25.27    4.25    0.21   0.000   0.200   0.000    0.00
   4.470   25.01    4.51    0.20   0.000   0.200   0.000    0.00
   4.480   24.47    5.26    0.32   0.000   0.200   0.000    0.00
   4.490   24.56    5.24   -0.11   0.000   0.200   0.000    0.00
   4.500   24.99    5.18   -0.19   0.000   0.200   0.000    0.00
   4.510   25.75    5.28   -0.21   0.000   0.200   0.000    0.00
   4.520   26.14    3.85   -0.88   0.000   0.200   0.000    0.00
   4.530   26.22    3.76   -0.98   0.000   0.200   0.000    0.00
   4.540   26.59    4.08   -0.31   0.000   0.200   0.000    0.00