! This hub-height wind-speed file was generated by TurbSim (from OpenFAST--128-NOTFOUND) on 23-Aug-2023 at 09:41:11.
!
! The requested statistics for this data were:
!    Mean Total Wind Speed =   20.000 m/s
!    Turbulence Intensity  =   14.420%
!
!   Time  HorSpd  WndDir  VerSpd  HorShr  VerShr  LnVShr  GstSpd
!  (sec)   (m/s)   (deg)   (m/s)     (-)     (-)     (-)   (m/s)
   0.000   22.05    6.00    5.51   0.000   0.200   0.000    0.00
   0.010   21.94    6.40    6.45   0.000   0.200   0.000    0.00
   0.020   21.95    6.59    6.01   0.000   0.200   0.000    0.00
   0.030   21.36    7.98    5.65   0.000   0.200   0.000    0.00
   0.040   21.59    6.91    5.26   0.000   0.200   0.000    0.00
   0.050   21.79    7.84    5.99   0.000   0.200   0.000    0.00
   0.060   21.55    8.22    6.23   0.000   0.200   0.000    0.00
   0.070   21.76    7.93    6.64   0.000   0.200   0.000    0.00
   0.080   22.27    7.18    6.95   0.000   0.200   0.000    0.00
   0.090   22.36    7.32    6.08   0.000   0.200   0.000    0.00
   0.100   22.12    8.13    5.60   0.000   0.200   0.000    0.00
   0.110   22.48    7.98    5.84   0.000   0.200   0.000    0.00
   0.120   22.58    9.06    5.92   0.000   0.200   0.000    0.00
   0.130   22.47    8.91    5.73   0.000   0.200   0.000    0.00
   0.140   22.73   10.02    6.84   0.000   0.200   0.000    0.00
   0.150   23.02   11.30    6.99   0.000   0.200   0.000    0.00
   0.160   23.06   10.48    6.43   0.000   0.200   0.000    0.00
   0.170   22.67   12.02    6.84   0.000   0.200   0.000    0.00
   0.180   22.64   12.44    6.81   0.000   0.200   0.000    0.00
   0.190   22.46   11.20    6.60   0.000   0.200   0.000    0.00
   0.200   22.76   11.22    6.39   0.000   0.200   0.000    0.00
   0.210   23.51   10.59    6.30   0.000   0.200   0.000    0.00
   0.220   23.63   11.93    5.89   0.000   0.200   0.000    0.00
   0.230   23.81   12.55    6.48   0.000   0.200   0.000    0.00
   0.240   23.79   11.48    6.81   0.000   0.200   0.000    0.00
   0.250   23.83   12.39    6.92   0.000   0.200   0.000    0.00
   0.260   23.98   13.12    7.30   0.000   0.200   0.000    0.00
   0.270   23.47   12.75    7.35   0.000   0.200   0.000    0.00
   0.280   23.14   11.42    7.56   0.000   0.200   0.000    0.00
   0.290   22.72   11.98    7.86   0.000   0.200   0.000    0.00
   0.300   22.51   11.60    7.54   0.000   0.200   0.000    0.00
   0.310   23.06   11.46    7.40   0.000   0.200   0.000    0.00
   0.320   22.62   11.94    7.26   0.000   0.200   0.000    0.00
   0.330   21.91   12.10    7.70   0.000   0.200   0.000    0.00
   0.340   21.90   11.43    7.37   0.000   0.200   0.000    0.00
   0.350   22.08   10.56    6.70   0.000   0.200   0.000    0.00
   0.360   21.86   10.61    6.91   0.000   0.200   0.000    0.00
   0.370   21.60    9.27    6.49   0.000   0.200   0.000    0.00
   0.380   21.76    9.65    6.44   0.000   0.200   0.000    0.00
   0.390   22.03    9.73    6.40   0.000   0.200   0.000    0.00
   0.400   22.60   11.02    6.97   0.000   0.200   0.000    0.00
   0.410   22.41   12.07    6.92   0.000   0.200   0.000    0.00
   0.420   22.08   12.56    6.50   0.000   0.200   0.000    0.00
   0.430   22.20   10.24    6.04   0.000   0.200   0.000    0.00
   0.440   22.00    9.47    6.18   0.000   0.200   0.000    0.00
   0.450   21.95    8.29    6.33   0.000   0.200   0.000    0.00
   0.460   22.51    8.28    6.33   0.000   0.200   0.000    0.00
   0.470   22.60    9.16    6.29   0.000   0.200   0.000    0.00
   0.480   22.60    7.84    5.98   0.000   0.200   0.000    0.00
   0.490   22.42    7.37    5.85   0.000   0.200   0.000    0.00
   0.500   22.70    7.15    5.54   0.000   0.200   0.000    0.00
   0.510   22.69    8.15    5.52   0.000   0.200   0.000    0.00
   0.520   22.63    7.24    5.09   0.000   0.200   0.000    0.00
   0.530   23.06    6.33    4.46   0.000   0.200   0.000    0.00
   0.540   23.18    4.96    4.86   0.000   0.200   0.000    0.00
   0.550   22.86    5.40    4.48   0.000   0.200   0.000    0.00
   0.560   23.03    6.30    4.34   0.000   0.200   0.000    0.00
   0.570   23.07    6.06    4.39   0.000   0.200   0.000    0.00
   0.580   23.35    6.59    3.85   0.000   0.200   0.000    0.00
   0.590   22.84    6.05    4.48   0.000   0.200   0.000    0.00
   0.600   22.90    5.66    4.78   0.000   0.200   0.000    0.00
   0.610   22.85    6.21    4.24   0.000   0.200   0.000    0.00
   0.620   22.78    5.42    4.22   0.000   0.200   0.000    0.00
   0.630   22.89    6.09    4.48   0.000   0.200   0.000    0.00
   0.640   22.54    5.58    4.71   0.000   0.200   0.000    0.00
   0.650   22.18    5.21    4.81   0.000   0.200   0.000    0.00
   0.660   22.19    5.97    4.81   0.000   0.200   0.000    0.00
   0.670   21.90    6.07    4.64   0.000   0.200   0.000    0.00
   0.680   22.25    5.84    4.94   0.000   0.200   0.000    0.00
   0.690   21.63    3.86    5.44   0.000   0.200   0.000    0.00
   0.700   21.71    3.90    5.29   0.000   0.200   0.000    0.00
   0.710   22.40    4.31    4.60   0.000   0.200   0.000    0.00
   0.720   22.46    3.52    4.80   0.000   0.200   0.000    0.00
   0.730   22.52    2.10    4.83   0.000   0.200   0.000    0.00
   0.740   22.26    1.79    4.32   0.000   0.200   0.000    0.00
   0.750   22.22    2.03    4.79   0.000   0.200   0.000    0.00
   0.760   22.25    2.32    5.08   0.000   0.200   0.000    0.00
   0.770   22.20    2.11    5.84   0.000   0.200   0.000    0.00
   0.780   22.11    1.56    5.62   0.000   0.200   0.000    0.00
   0.790   22.33    1.64    4.79   0.000   0.200   0.000    0.00
   0.800   22.68    1.72    4.86   0.000   0.200   0.000    0.00
   0.810   21.98    2.37    5.08   0.000   0.200   0.000    0.00
   0.820   21.79    0.97    5.10   0.000   0.200   0.000    0.00
   0.830   21.77    0.48    5.13   0.000   0.200   0.000    0.00
   0.840   21.82    1.18    5.30   0.000   0.200   0.000    0.00
   0.850   21.82    1.19    5.92   0.000   0.200   0.000    0.00
   0.860   22.08    0.52    5.63   0.000   0.200   0.000    0.00
   0.870   22.47    1.63    5.29   0.000   0.200   0.000    0.00
   0.880   22.44    1.28    4.76   0.000   0.200   0.000    0.00
   0.890   22.32    0.82    4.88   0.000   0.200   0.000    0.00
   0.900   22.27    0.80    4.27   0.000   0.200   0.000    0.00
   0.910   22.35    0.07    4.71   0.000   0.200   0.000    0.00
   0.920   22.21    0.82    4.69   0.000   0.200   0.000    0.00
   0.930   22.12    3.36    3.87   0.000   0.200   0.000    0.00
   0.940   22.26    2.88    3.72   0.000   0.200   0.000    0.00
   0.950   22.73    1.81    4.28   0.000   0.200   0.000    0.00
   0.960   22.74    3.08    4.70   0.000   0.200   0.000    0.00
   0.970   22.96    4.32    4.23   0.000   0.200   0.000    0.00
   0.980   23.26    5.49    4.21   0.000   0.200   0.000    0.00
   0.990   22.63    6.16    4.39   0.000   0.200   0.000    0.00
   1.000   22.60    6.53    4.29   0.000   0.200   0.000    0.00
   1.010   22.89    5.42    3.83   0.000   0.200   0.000    0.00
   1.020   23.01    5.89    3.14   0.000   0.200   0.000    0.00
   1.030   23.40    7.31    3.80   0.000   0.200   0.000    0.00
   1.040   23.49    8.98    3.85   0.000   0.200   0.000    0.00
   1.050   22.95    9.09    4.00   0.000   0.200   0.000    0.00
   1.060   22.59    8.03    4.35   0.000   0.200   0.000    0.00
   1.070   22.87    8.04    4.67   0.000   0.200   0.000    0.00
   1.080   23.26    7.72    4.91   0.000   0.200   0.000    0.00
   1.090   23.06    8.74    5.07   0.000   0.200   0.000    0.00
   1.100   23.02    9.69    4.91   0.000   0.200   0.000    0.00
   1.110   23.22    9.61    4.49   0.000   0.200   0.000    0.00
   1.120   23.30   10.06    4.02   0.000   0.200   0.000    0.00
   1.130   23.32   11.00    4.13   0.000   0.200   0.000    0.00
   1.140   23.71   11.10    4.11   0.000   0.200   0.000    0.00
   1.150   23.73   10.44    3.99   0.000   0.200   0.000    0.00
   1.160   23.90   10.79    4.27   0.000   0.200   0.000    0.00
   1.170   23.56   11.38    3.77   0.000   0.200   0.000    0.00
   1.180   23.90   10.25    3.93   0.000   0.200   0.000    0.00
   1.190   24.01    9.16    4.20   0.000   0.200   0.000    0.00
   1.200   23.62    8.19    3.41   0.000   0.200   0.000    0.00
   1.210   23.90    9.25    3.09   0.000   0.200   0.000    0.00
   1.220   23.92   10.88    3.30   0.000   0.200   0.000    0.00
   1.230   23.93   10.54    3.61   0.000   0.200   0.000    0.00
   1.240   23.59    9.11    4.09   0.000   0.200   0.000    0.00
   1.250   23.35    8.39    3.90   0.000   0.200   0.000    0.00
   1.260   23.63    7.78    3.93   0.000   0.200   0.000    0.00
   1.270   24.22    8.42    4.19   0.000   0.200   0.000    0.00
   1.280   23.51    8.64    4.67   0.000   0.200   0.000    0.00
   1.290   23.23    8.69    4.70   0.000   0.200   0.000    0.00
   1.300   23.24    8.46    4.79   0.000   0.200   0.000    0.00
   1.310   23.16   10.43    4.63   0.000   0.200   0.000    0.00
   1.320   23.32    9.73    4.67   0.000   0.200   0.000    0.00
   1.330   23.23    8.35    4.65   0.000   0.200   0.000    0.00
   1.340   23.42    9.07    4.75   0.000   0.200   0.000    0.00
   1.350   23.68    8.62    5.19   0.000   0.200   0.000    0.00
   1.360   23.61    8.05    5.40   0.000   0.200   0.000    0.00
   1.370   23.64    8.93    5.64   0.000   0.200   0.000    0.00
   1.380   23.38    7.57    5.37   0.000   0.200   0.000    0.00
   1.390   23.12    7.94    5.40   0.000   0.200   0.000    0.00
   1.400   22.97    7.21    5.63   0.000   0.200   0.000    0.00
   1.410   22.54    6.68    5.14   0.000   0.200   0.000    0.00
   1.420   22.68    6.40    5.72   0.000   0.200   0.000    0.00
   1.430   22.71    6.92    5.07   0.000   0.200   0.000    0.00
   1.440   22.39    6.18    4.67   0.000   0.200   0.000    0.00
   1.450   22.73    5.68    4.75   0.000   0.200   0.000    0.00
   1.460   22.51    4.68    3.94   0.000   0.200   0.000    0.00
   1.470   22.69    5.18    4.18   0.000   0.200   0.000    0.00
   1.480   23.02    4.33    4.46   0.000   0.200   0.000    0.00
   1.490   22.79    4.42    4.30   0.000   0.200   0.000    0.00
   1.500   22.97    5.24    3.43   0.000   0.200   0.000    0.00
   1.510   22.81    5.31    3.47   0.000   0.200   0.000    0.00
   1.520   23.36    6.60    3.24   0.000   0.200   0.000    0.00
   1.530   23.22    4.51    3.24   0.000   0.200   0.000    0.00
   1.540   22.98    5.61    3.58   0.000   0.200   0.000    0.00
   1.550   22.46    5.88    3.71   0.000   0.200   0.000    0.00
   1.560   22.67    7.27    3.54   0.000   0.200   0.000    0.00
   1.570   22.33    7.50    3.44   0.000   0.200   0.000    0.00
   1.580   22.54    9.23    3.66   0.000   0.200   0.000    0.00
   1.590   22.46    8.72    3.74   0.000   0.200   0.000    0.00
   1.600   22.81    9.74    3.33   0.000   0.200   0.000    0.00
   1.610   22.77    9.19    2.60   0.000   0.200   0.000    0.00
   1.620   22.90    8.70    2.77   0.000   0.200   0.000    0.00
   1.630   22.75    8.47    2.55   0.000   0.200   0.000    0.00
   1.640   22.43    7.78    2.29   0.000   0.200   0.000    0.00
   1.650   22.66    6.57    2.37   0.000   0.200   0.000    0.00
   1.660   23.48    7.09    2.44   0.000   0.200   0.000    0.00
   1.670   23.59    5.29    2.99   0.000   0.200   0.000    0.00
   1.680   22.94    3.62    2.97   0.000   0.200   0.000    0.00
   1.690   23.15    3.39    3.52   0.000   0.200   0.000    0.00
   1.700   22.97    3.88    2.87   0.000   0.200   0.000    0.00
   1.710   23.13    4.09    3.52   0.000   0.200   0.000    0.00
   1.720   23.18    5.54    3.80   0.000   0.200   0.000    0.00
   1.730   22.72    5.87    4.27   0.000   0.200   0.000    0.00
   1.740   23.14    5.44    3.84   0.000   0.200   0.000    0.00
   1.750   23.47    6.05    3.87   0.000   0.200   0.000    0.00
   1.760   23.72    5.34    4.15   0.000   0.200   0.000    0.00
   1.770   23.38    5.69    4.29   0.000   0.200   0.000    0.00
   1.780   22.77    3.35    4.05   0.000   0.200   0.000    0.00
   1.790   22.84    3.47    3.45   0.000   0.200   0.000    0.00
   1.800   22.70    4.14    3.91   0.000   0.200   0.000    0.00
   1.810   22.41    3.42    4.64   0.000   0.200   0.000    0.00
   1.820   22.94    4.77    4.69   0.000   0.200   0.000    0.00
   1.830   23.29    4.15    4.24   0.000   0.200   0.000    0.00
   1.840   23.30    3.78    4.50   0.000   0.200   0.000    0.00
   1.850   23.15    2.93    4.47   0.000   0.200   0.000    0.00
   1.860   22.96    3.15    4.42   0.000   0.200   0.000    0.00
   1.870   22.75    2.80    4.05   0.000   0.200   0.000    0.00
   1.880   22.52    1.87    4.15   0.000   0.200   0.000    0.00
   1.890   22.10    0.11    4.45   0.000   0.200   0.000    0.00
   1.900   22.08   -0.28    4.32   0.000   0.200   0.000    0.00
   1.910   21.72    0.33    4.65   0.000   0.200   0.000    0.00
   1.920   21.67    2.41    4.67   0.000   0.200   0.000    0.00
   1.930   21.42    3.38    4.88   0.000   0.200   0.000    0.00
   1.940   21.65    2.60    5.06   0.000   0.200   0.000    0.00
   1.950   21.91    1.03    5.81   0.000   0.200   0.000    0.00
   1.960   21.92    0.89    5.90   0.000   0.200   0.000    0.00
   1.970   21.62   -0.01    5.44   0.000   0.200   0.000    0.00
   1.980   21.51    0.50    5.55   0.000   0.200   0.000    0.00
   1.990   21.64    1.98    5.60   0.000   0.200   0.000    0.00
   2.000   21.78    1.91    6.06   0.000   0.200   0.000    0.00
   2.010   21.58    1.16    5.84   0.000   0.200   0.000    0.00
   2.020   22.13    0.93    5.71   0.000   0.200   0.000    0.00
   2.030   22.35    0.73    5.89   0.000   0.200   0.000    0.00
   2.040   22.39    0.40    5.70   0.000   0.200   0.000    0.00
   2.050   22.19    0.45    5.92   0.000   0.200   0.000    0.00
   2.060   21.69   -0.61    6.08   0.000   0.200   0.000    0.00
   2.070   21.43    1.31    6.38   0.000   0.200   0.000    0.00
   2.080   21.39    3.56    6.65   0.000   0.200   0.000    0.00
   2.090   21.34    3.64    6.54   0.000   0.200   0.000    0.00
   2.100   21.66    2.48    6.76   0.000   0.200   0.000    0.00
   2.110   22.21    1.01    6.58   0.000   0.200   0.000    0.00
   2.120   22.20    1.11    6.44   0.000   0.200   0.000    0.00
   2.130   22.12    0.46    6.87   0.000   0.200   0.000    0.00
   2.140   22.27    0.60    6.69   0.000   0.200   0.000    0.00
   2.150   22.53    0.88    6.08   0.000   0.200   0.000    0.00
   2.160   22.61    0.23    5.89   0.000   0.200   0.000    0.00
   2.170   22.71   -0.22    6.09   0.000   0.200   0.000    0.00
   2.180   23.06   -0.24    7.09   0.000   0.200   0.000    0.00
   2.190   22.56    0.23    7.06   0.000   0.200   0.000    0.00
   2.200   22.37    1.05    7.64   0.000   0.200   0.000    0.00
   2.210   22.16    2.06    7.24   0.000   0.200   0.000    0.00
   2.220   21.29    1.68    7.11   0.000   0.200   0.000    0.00
   2.230   21.25    0.13    7.16   0.000   0.200   0.000    0.00
   2.240   21.37   -0.37    7.15   0.000   0.200   0.000    0.00
   2.250   20.70   -0.57    7.01   0.000   0.200   0.000    0.00
   2.260   20.76   -0.66    7.42   0.000   0.200   0.000    0.00
   2.270   20.58    0.69    7.59   0.000   0.200   0.000    0.00
   2.280   20.94    1.36    7.20   0.000   0.200   0.000    0.00
   2.290   21.10    1.59    7.64   0.000   0.200   0.000    0.00
   2.300   20.42    0.32    7.27   0.000   0.200   0.000    0.00
   2.310   20.64    0.09    7.23   0.000   0.200   0.000    0.00
   2.320   20.29   -0.66    7.06   0.000   0.200   0.000    0.00
   2.330   20.65    0.04    6.84   0.000   0.200   0.000    0.00
   2.340   20.98   -0.61    7.40   0.000   0.200   0.000    0.00
   2.350   20.61   -1.52    6.75   0.000   0.200   0.000    0.00
   2.360   20.65   -1.47    6.98   0.000   0.200   0.000    0.00
   2.370   20.34   -0.40    7.52   0.000   0.200   0.000    0.00
   2.380   20.51   -1.11    8.04   0.000   0.200   0.000    0.00
   2.390   20.37   -1.21    8.20   0.000   0.200   0.000    0.00
   2.400   20.72   -1.51    7.91   0.000   0.200   0.000    0.00
   2.410   21.11   -3.29    7.30   0.000   0.200   0.000    0.00
   2.420   20.76   -3.04    7.01   0.000   0.200   0.000    0.00
   2.430   20.77   -1.72    6.89   0.000   0.200   0.000    0.00
   2.440   20.85   -3.11    6.91   0.000   0.200   0.000    0.00
   2.450   20.65   -1.85    6.99   0.000   0.200   0.000    0.00
   2.460   20.35   -2.62    6.88   0.000   0.200   0.000    0.00
   2.470   20.71   -2.37    6.74   0.000   0.200   0.000    0.00
   2.480   21.00   -2.09    6.08   0.000   0.200   0.000    0.00
   2.490   20.68   -3.22    6.11   0.000   0.200   0.000    0.00
   2.500   20.25   -3.11    6.21   0.000   0.200   0.000    0.00
   2.510   20.07   -3.46    6.54   0.000   0.200   0.000    0.00
   2.520   20.58   -3.06    6.40   0.000   0.200   0.000    0.00
   2.530   20.85   -2.99    6.20   0.000   0.200   0.000    0.00
   2.540   20.60   -3.24    5.81   0.000   0.200   0.000    0.00
   2.550   20.42   -3.22    5.54   0.000   0.200   0.000    0.00
   2.560   20.77   -2.30    5.23   0.000   0.200   0.000    0.00
   2.570   21.25   -2.01    5.52   0.000   0.200   0.000    0.00
   2.580   21.22   -3.53    5.73   0.000   0.200   0.000    0.00
   2.590   21.26   -2.71    5.23   0.000   0.200   0.000    0.00
   2.600   21.09   -3.59    4.96   0.000   0.200   0.000    0.00
   2.610   21.19   -4.64    4.90   0.000   0.200   0.000    0.00
   2.620   21.33   -4.72    5.05   0.000   0.200   0.000    0.00
   2.630   21.48   -5.21    4.94   0.000   0.200   0.000    0.00
   2.640   21.55   -4.10    4.48   0.000   0.200   0.000    0.00
   2.650   21.62   -3.42    4.78   0.000   0.200   0.000    0.00
   2.660   21.27   -1.83    4.63   0.000   0.200   0.000    0.00
   2.670   21.28   -0.70    4.10   0.000   0.200   0.000    0.00
   2.680   21.28   -0.63    4.37   0.000   0.200   0.000    0.00
   2.690   21.13   -0.66    4.92   0.000   0.200   0.000    0.00
   2.700   21.61    0.14    5.27   0.000   0.200   0.000    0.00
   2.710   21.70    0.47    4.97   0.000   0.200   0.000    0.00
   2.720   21.38   -0.31    4.17   0.000   0.200   0.000    0.00
   2.730   21.13   -1.68    4.72   0.000   0.200   0.000    0.00
   2.740   20.60   -0.66    4.72   0.000   0.200   0.000    0.00
   2.750   20.73    0.21    4.80   0.000   0.200   0.000    0.00
   2.760   20.50    1.35    4.87   0.000   0.200   0.000    0.00
   2.770   21.00    1.58    4.45   0.000   0.200   0.000    0.00
   2.780   20.81    0.89    3.75   0.000   0.200   0.000    0.00
   2.790   20.56    0.80    3.38   0.000   0.200   0.000    0.00
   2.800   20.31    1.47    3.27   0.000   0.200   0.000    0.00
   2.810   20.10    0.77    3.76   0.000   0.200   0.000    0.00
   2.820   20.08    0.41    3.81   0.000   0.200   0.000    0.00
   2.830   19.88   -0.11    3.70   0.000   0.200   0.000    0.00
   2.840   20.34   -2.16    3.92   0.000   0.200   0.000    0.00
   2.850   20.55   -2.93    4.12   0.000   0.200   0.000    0.00
   2.860   20.63   -3.22    3.98   0.000   0.200   0.000    0.00
   2.870   20.20   -4.07    3.89   0.000   0.200   0.000    0.00
   2.880   20.31   -3.39    3.91   0.000   0.200   0.000    0.00
   2.890   19.99   -4.34    3.89   0.000   0.200   0.000    0.00
   2.900   19.99   -4.22    3.46   0.000   0.200   0.000    0.00
   2.910   20.61   -6.67    3.98   0.000   0.200   0.000    0.00
   2.920   20.36   -5.95    4.64   0.000   0.200   0.000    0.00
   2.930   20.05   -5.52    4.57   0.000   0.200   0.000    0.00
   2.940   20.15   -6.38    3.70   0.000   0.200   0.000    0.00
   2.950   20.30   -4.94    3.61   0.000   0.200   0.000    0.00
   2.960   20.01   -5.95    3.31   0.000   0.200   0.000    0.00
   2.970   20.30   -5.98    3.32   0.000   0.200   0.000    0.00
   2.980   20.17   -6.26    2.86   0.000   0.200   0.000    0.00
   2.990   20.05   -5.97    3.27   0.000   0.200   0.000    0.00
   3.000   20.37   -6.06    3.16   0.000   0.200   0.000    0.00
   3.010   20.24   -5.84    2.36   0.000   0.200   0.000    0.00
   3.020   19.75   -5.70    2.41   0.000   0.200   0.000    0.00
   3.030   19.19   -5.64    1.97   0.000   0.200   0.000    0.00
   3.040   19.82   -5.80    2.18   0.000   0.200   0.000    0.00
   3.050   20.15   -5.13    2.35   0.000   0.200   0.000    0.00
   3.060   20.03   -6.61    2.17   0.000   0.200   0.000    0.00
   3.070   20.15   -6.54    2.15   0.000   0.200   0.000    0.00
   3.080   20.08   -7.25    1.45   0.000   0.200   0.000    0.00
   3.090   20.28   -8.65    0.86   0.000   0.200   0.000    0.00
   3.100   19.83   -8.37    0.49   0.000   0.200   0.000    0.00
   3.110   20.42   -7.14    1.47   0.000   0.200   0.000    0.00
   3.120   20.24   -6.47    0.48   0.000   0.200   0.000    0.00
   3.130   19.98   -8.32    0.65   0.000   0.200   0.000    0.00
   3.140   20.20   -7.40    0.26   0.000   0.200   0.000    0.00
   3.150   20.53   -6.09    0.37   0.000   0.200   0.000    0.00
   3.160   20.68   -6.28    0.09   0.000   0.200   0.000    0.00
   3.170   20.30   -6.04   -0.09   0.000   0.200   0.000    0.00
   3.180   20.05   -4.27   -0.05   0.000   0.200   0.000    0.00
   3.190   19.87   -5.04   -0.34   0.000   0.200   0.000    0.00
   3.200   19.48   -6.35   -0.22   0.000   0.200   0.000    0.00
   3.210   19.93   -8.00   -0.25   0.000   0.200   0.000    0.00
   3.220   20.07   -7.94    0.04   0.000   0.200   0.000    0.00
   3.230   20.42   -7.63    0.57   0.000   0.200   0.000    0.00
   3.240   20.88   -9.46    0.37   0.000   0.200   0.000    0.00
   3.250   20.44   -9.16    0.36   0.000   0.200   0.000    0.00
   3.260   20.96  -10.29   -0.10   0.000   0.200   0.000    0.00
   3.270   21.46  -11.38   -0.24   0.000   0.200   0.000    0.00
   3.280   20.91  -10.61   -0.19   0.000   0.200   0.000    0.00
   3.290   20.90  -11.56   -0.03   0.000   0.200   0.000    0.00
   3.300   21.19  -10.81    0.38   0.000   0.200   0.000    0.00
   3.310   21.49  -12.11    0.59   0.000   0.200   0.000    0.00
   3.320   21.46  -13.99    0.32   0.000   0.200   0.000    0.00
   3.330   21.00  -13.46    0.34   0.000   0.200   0.000    0.00
   3.340   21.56  -11.64   -0.44   0.000   0.200   0.000    0.00
   3.350   21.54  -10.69   -1.20   0.000   0.200   0.000    0.00
   3.360   21.42  -10.85   -1.85   0.000   0.200   0.000    0.00
   3.370   21.88  -13.17   -1.72   0.000   0.200   0.000    0.00
   3.380   21.98  -12.36   -1.24   0.000   0.200   0.000    0.00
   3.390   21.92  -13.57   -0.97   0.000   0.200   0.000    0.00
   3.400   21.56  -12.79   -0.69   0.000   0.200   0.000    0.00
   3.410   21.36  -13.17   -1.34   0.000   0.200   0.000    0.00
   3.420   20.66  -11.69   -2.00   0.000   0.200   0.000    0.00
   3.430   20.90  -10.31   -1.78   0.000   0.200   0.000    0.00
   3.440   21.20  -10.94   -1.43   0.000   0.200   0.000    0.00
   3.450   21.60   -8.75   -1.46   0.000   0.200   0.000    0.00
   3.460   21.51   -9.43   -1.22   0.000   0.200   0.000    0.00
   3.470   21.22   -8.42   -1.43   0.000   0.200   0.000    0.00
   3.480   21.22   -9.20   -1.58   0.000   0.200   0.000    0.00
   3.490   21.43  -10.43   -1.11   0.000   0.200   0.000    0.00
   3.500   21.62  -10.52   -1.13   0.000   0.200   0.000    0.00
   3.510   21.74   -9.47   -0.45   0.000   0.200   0.000    0.00
   3.520   21.63   -9.98   -0.30   0.000   0.200   0.000    0.00
   3.530   21.41   -8.84   -0.31   0.000   0.200   0.000    0.00
   3.540   21.48   -9.30   -0.81   0.000   0.200   0.000    0.00
   3.550   21.41   -7.71   -0.71   0.000   0.200   0.000    0.00
   3.560   21.50   -9.15   -1.04   0.000   0.200   0.000    0.00
   3.570   21.97   -8.99   -1.25   0.000   0.200   0.000    0.00
   3.580   22.06   -9.80   -0.83   0.000   0.200   0.000    0.00
   3.590   22.23  -11.16   -0.75   0.000   0.200   0.000    0.00
   3.600   22.01   -9.86   -1.10   0.000   0.200   0.000    0.00
   3.610   22.45   -9.92   -1.32   0.000   0.200   0.000    0.00
   3.620   22.68   -9.55   -1.53   0.000   0.200   0.000    0.00
   3.630   22.16   -8.01   -1.08   0.000   0.200   0.000    0.00
   3.640   22.12   -8.24   -0.35   0.000   0.200   0.000    0.00
   3.650   21.93   -7.32    0.31   0.000   0.200   0.000    0.00
   3.660   22.26   -7.15    0.42   0.000   0.200   0.000    0.00
   3.670   22.35   -6.84    0.13   0.000   0.200   0.000    0.00
   3.680   22.43   -6.30   -0.02   0.000   0.200   0.000    0.00
   3.690   22.40   -6.83    0.40   0.000   0.200   0.000    0.00
   3.700   22.83   -6.71    0.17   0.000   0.200   0.000    0.00
   3.710   22.65   -5.76    0.81   0.000   0.200   0.000    0.00
   3.720   22.23   -4.73    1.16   0.000   0.200   0.000    0.00
   3.730   22.03   -3.87    1.12   0.000   0.200   0.000    0.00
   3.740   22.72   -3.61    1.47   0.000   0.200   0.000    0.00
   3.750   22.81   -5.26    1.64   0.000   0.200   0.000    0.00
   3.760   22.71   -4.78    1.20   0.000   0.200   0.000    0.00
   3.770   22.83   -4.11    0.89   0.000   0.200   0.000    0.00
   3.780   22.58   -3.68    0.81   0.000   0.200   0.000    0.00
   3.790   22.22   -3.92    1.06   0.000   0.200   0.000    0.00
   3.800   21.65   -1.70    1.19   0.000   0.200   0.000    0.00
   3.810   21.45   -1.39    1.20   0.000   0.200   0.000    0.00
   3.820   22.15   -1.85    1.74   0.000   0.200   0.000    0.00
   3.830   21.57   -0.40    1.74   0.000   0.200   0.000    0.00
   3.840   21.16   -0.01    1.25   0.000   0.200   0.000    0.00
   3.850   21.26   -0.69    1.55   0.000   0.200   0.000    0.00
   3.860   21.15   -0.06    1.60   0.000   0.200   0.000    0.00
   3.870   21.00   -1.18    1.28   0.000   0.200   0.000    0.00
   3.880   21.09   -0.18    0.56   0.000   0.200   0.000    0.00
   3.890   21.20   -0.83    0.35   0.000   0.200   0.000    0.00
   3.900   20.73   -1.27    0.36   0.000   0.200   0.000    0.00
   3.910   20.92   -0.46    0.52   0.000   0.200   0.000    0.00
   3.920   20.62   -0.53    0.21   0.000   0.200   0.000    0.00
   3.930   21.46   -1.01   -0.10   0.000   0.200   0.000    0.00
   3.940   21.40   -0.73   -0.10   0.000   0.200   0.000    0.00
   3.950   21.45   -1.68   -0.34   0.000   0.200   0.000    0.00
   3.960   21.31   -2.08   -0.14   0.000   0.200   0.000    0.00
   3.970   21.45   -1.09    0.40   0.000   0.200   0.000    0.00
   3.980   21.46   -1.09   -0.47   0.000   0.200   0.000    0.00
   3.990   21.10   -2.41    0.68   0.000   0.200   0.000    0.00
   4.000   21.06   -2.16    0.66   0.000   0.200   0.000    0.00
   4.010   21.23   -1.92    0.31   0.000   0.200   0.000    0.00
   4.020   21.12   -2.77    0.05   0.000   0.200   0.000    0.00
   4.030   21.28   -4.00   -0.38   0.000   0.200   0.000    0.00
   4.040   21.73   -2.08   -0.22   0.000   0.200   0.000    0.00
   4.050   21.54   -1.33    0.19   0.000   0.200   0.000    0.00
   4.060   20.90   -1.90    0.31   0.000   0.200   0.000    0.00
   4.070   20.82   -2.09    0.27   0.000   0.200   0.000    0.00
   4.080   20.88   -4.00    0.61   0.000   0.200   0.000    0.00
   4.090   21.52   -4.25    0.48   0.000   0.200   0.000    0.00
   4.100   21.87   -4.43    0.66   0.000   0.200   0.000    0.00
   4.110   21.98   -2.45    0.03   0.000   0.200   0.000    0.00
   4.120   21.79   -1.99    0.07   0.000   0.200   0.000    0.00
   4.130   21.97   -1.78   -0.01   0.000   0.200   0.000    0.00
   4.140   22.37    0.30    0.06   0.000   0.200   0.000    0.00
   4.150   21.93   -0.52    0.21   0.000   0.200   0.000    0.00
   4.160   22.01   -1.34   -0.12   0.000   0.200   0.000    0.00
   4.170   22.04   -0.30   -0.16   0.000   0.200   0.000    0.00
   4.180   21.87   -0.85   -0.43   0.000   0.200   0.000    0.00
   4.190   21.72   -1.24    0.11   0.000   0.200   0.000    0.00
   4.200   21.92   -1.78   -0.01   0.000   0.200   0.000    0.00
   4.210   21.94   -1.16    0.35   0.000   0.200   0.000    0.00
   4.220   22.08    0.25    0.21   0.000   0.200   0.000    0.00
   4.230   22.36   -0.31    0.49   0.000   0.200   0.000    0.00
   4.240   21.68   -1.99    1.25   0.000   0.200   0.000    0.00
   4.250   21.35   -1.90    1.37   0.000   0.200   0.000    0.00
   4.260   22.08   -0.95    1.57   0.000   0.200   0.000    0.00
   4.270   21.68   -1.08    0.92   0.000   0.200   0.000    0.00
   4.280   21.48    0.48    0.89   0.000   0.200   0.000    0.00
   4.290   21.22    0.40    0.59   0.000   0.200   0.000    0.00
   4.300   21.23    0.97    0.95   0.000   0.200   0.000    0.00
   4.310   21.56    0.93    1.06   0.000   0.200   0.000    0.00
   4.320   22.12    1.50    1.78   0.000   0.200   0.000    0.00
   4.330   22.27    2.05    1.87   0.000   0.200   0.000    0.00
   4.340   22.25    2.32    1.98   0.000   0.200   0.000    0.00
   4.350   21.76    2.42    2.51   0.000   0.200   0.000    0.00
   4.360   21.98    2.42    3.00   0.000   0.200   0.000    0.00
   4.370   21.91    1.83    3.21   0.000   0.200   0.000    0.00
   4.380   21.30    2.24    3.29   0.000   0.200   0.000    0.00
   4.390   20.94    2.66    3.59   0.000   0.200   0.000    0.00
   4.400   21.50    2.29    3.05   0.000   0.200   0.000    0.00
   4.410   21.41    3.48    2.90   0.000   0.200   0.000    0.00
   4.420   21.24    3.74    3.16   0.000   0.200   0.000    0.00
   4.430   21.27    5.26    2.84   0.000   0.200   0.000    0.00
   4.440   21.57    4.02    2.95   0.000   0.200   0.000    0.00
   4.450   21.23    6.45    3.59   0.000   0.200   0.000    0.00
   4.460   21.00    5.18    3.39   0.000   0.200   0.000    0.00
   4.470   20.83    5.57    3.50   0.000   0.200   0.000    0.00
   4.480   21.66    4.80    2.85   0.000   0.200   0.000    0.00
   4.490   21.26    3.63    3.14   0.000   0.200   0.000    0.00
   4.500   22.35    4.54    3.31   0.000   0.200   0.000    0.00
   4.510   22.25    3.61    4.02   0.000   0.200   0.000    0.00
   4.520   22.02    5.41    4.39   0.000   0.200   0.000    0.00
   4.530   21.83    5.28    3.71   0.000   0.200   0.000    0.00
   4.540   22.31    5.44    3.47   0.000   0.200   0.000    0.00