! This hub-height wind-speed file was generated by TurbSim (from OpenFAST--128-NOTFOUND) on 23-Aug-2023 at 09:41:12.
!
! The requested statistics for this data were:
!    Mean Total Wind Speed =   20.000 m/s
!    Turbulence Intensity  =   14.420%
!
!   Time  HorSpd  WndDir  VerSpd  HorShr  VerShr  LnVShr  GstSpd
!  (sec)   (m/s)   (deg)   (m/s)     (-)     (-)     (-)   (m/s)
   0.000   20.96    3.66    7.27   0.000   0.200   0.000    0.00
   0.010   20.97    4.41    6.96   0.000   0.200   0.000    0.00
   0.020   20.79    4.86    7.07   0.000   0.200   0.000    0.00
   0.030   20.44    4.16    6.78   0.000   0.200   0.000    0.00
   0.040   20.19    5.05    6.13   0.000   0.200   0.000    0.00
   0.050   20.23    5.69    6.36   0.000   0.200   0.000    0.00
   0.060   20.32    4.77    7.46   0.000   0.200   0.000    0.00
   0.070   19.71    5.45    7.69   0.000   0.200   0.000    0.00
   0.080   19.68    5.09    7.56   0.000   0.200   0.000    0.00
   0.090   19.16    5.46    8.16   0.000   0.200   0.000    0.00
   0.100   19.90    5.39    8.78   0.000   0.200   0.000    0.00
   0.110   18.92    4.45    8.61   0.000   0.200   0.000    0.00
   0.120   18.64    4.78    9.21   0.000   0.200   0.000    0.00
   0.130   19.21    4.74    8.84   0.000   0.200   0.000    0.00
   0.140   19.46    5.28    9.13   0.000   0.200   0.000    0.00
   0.150   19.44    3.64    9.60   0.000   0.200   0.000    0.00
   0.160   19.45    3.35    8.95   0.000   0.200   0.000    0.00
   0.170   19.07    3.91    9.09   0.000   0.200   0.000    0.00
   0.180   18.55    4.41    9.02   0.000   0.200   0.000    0.00
   0.190   18.91    4.04    8.98   0.000   0.200   0.000    0.00
   0.200   19.10    4.71    9.01   0.000   0.200   0.000    0.00
   0.210   19.44    3.11    9.20   0.000   0.200   0.000    0.00
   0.220   19.26    3.00    9.15   0.000   0.200   0.000    0.00
   0.230   19.26    1.17    9.75   0.000   0.200   0.000    0.00
   0.240   19.02    0.53    8.85   0.000   0.200   0.000    0.00
   0.250   18.80    1.20    8.88   0.000   0.200   0.000    0.00
   0.260   19.05   -0.18    8.57   0.000   0.200   0.000    0.00
   0.270   18.93   -1.37    8.39   0.000   0.200   0.000    0.00
   0.280   19.00    0.59    8.18   0.000   0.200   0.000    0.00
   0.290   19.15    0.96    7.90   0.000   0.200   0.000    0.00
   0.300   19.46    1.63    7.70   0.000   0.200   0.000    0.00
   0.310   19.39    1.42    7.19   0.000   0.200   0.000    0.00
   0.320   19.27   -0.04    6.81   0.000   0.200   0.000    0.00
   0.330   19.32   -1.60    6.52   0.000   0.200   0.000    0.00
   0.340   19.38   -2.38    6.35   0.000   0.200   0.000    0.00
   0.350   18.60   -1.76    6.24   0.000   0.200   0.000    0.00
   0.360   18.43   -3.69    6.17   0.000   0.200   0.000    0.00
   0.370   18.16   -2.69    6.84   0.000   0.200   0.000    0.00
   0.380   18.29   -3.10    7.32   0.000   0.200   0.000    0.00
   0.390   18.29   -2.83    6.80   0.000   0.200   0.000    0.00
   0.400   18.47   -3.02    6.43   0.000   0.200   0.000    0.00
   0.410   18.08   -2.92    7.07   0.000   0.200   0.000    0.00
   0.420   18.60   -4.10    7.09   0.000   0.200   0.000    0.00
   0.430   18.52   -3.90    6.91   0.000   0.200   0.000    0.00
   0.440   19.20   -4.51    6.71   0.000   0.200   0.000    0.00
   0.450   19.27   -4.94    7.08   0.000   0.200   0.000    0.00
   0.460   19.64   -5.59    7.34   0.000   0.200   0.000    0.00
   0.470   19.99   -6.74    7.11   0.000   0.200   0.000    0.00
   0.480   19.69   -5.43    7.19   0.000   0.200   0.000    0.00
   0.490   19.23   -4.37    7.10   0.000   0.200   0.000    0.00
   0.500   19.10   -4.96    7.52   0.000   0.200   0.000    0.00
   0.510   19.45   -5.98    7.21   0.000   0.200   0.000    0.00
   0.520   19.69   -5.85    6.88   0.000   0.200   0.000    0.00
   0.530   19.60   -5.12    6.88   0.000   0.200   0.000    0.00
   0.540   20.38   -3.28    7.17   0.000   0.200   0.000    0.00
   0.550   20.09   -3.09    6.32   0.000   0.200   0.000    0.00
   0.560   19.95   -4.75    6.55   0.000   0.200   0.000    0.00
   0.570   19.52   -5.11    6.89   0.000   0.200   0.000    0.00
   0.580   20.16   -5.92    7.26   0.000   0.200   0.000    0.00
   0.590   20.21   -6.24    7.35   0.000   0.200   0.000    0.00
   0.600   19.83   -5.97    7.20   0.000   0.200   0.000    0.00
   0.610   19.52   -7.65    7.14   0.000   0.200   0.000    0.00
   0.620   19.26   -8.12    6.54   0.000   0.200   0.000    0.00
   0.630   19.51   -7.24    5.92   0.000   0.200   0.000    0.00
   0.640   19.64   -7.20    6.65   0.000   0.200   0.000    0.00
   0.650   20.05   -5.19    5.94   0.000   0.200   0.000    0.00
   0.660   20.30   -4.43    5.50   0.000   0.200   0.000    0.00
   0.670   20.54   -5.48    5.25   0.000   0.200   0.000    0.00
   0.680   20.54   -5.72    5.42   0.000   0.200   0.000    0.00
   0.690   20.57   -5.07    5.62   0.000   0.200   0.000    0.00
   0.700   20.42   -4.97    5.67   0.000   0.200   0.000    0.00
   0.710   20.14   -5.51    6.12   0.000   0.200   0.000    0.00
   0.720   20.39   -7.49    6.50   0.000   0.200   0.000    0.00
   0.730   20.88   -6.21    6.26   0.000   0.200   0.000    0.00
   0.740   20.96   -5.41    6.54   0.000   0.200   0.000    0.00
   0.750   20.88   -4.95    6.04   0.000   0.200   0.000    0.00
   0.760   20.72   -5.92    5.81   0.000   0.200   0.000    0.00
   0.770   21.10   -4.79    6.18   0.000   0.200   0.000    0.00
   0.780   21.63   -4.14    6.18   0.000   0.200   0.000    0.00
   0.790   21.13   -4.88    5.61   0.000   0.200   0.000    0.00
   0.800   21.34   -4.32    5.20   0.000   0.200   0.000    0.00
   0.810   21.41   -2.77    5.07   0.000   0.200   0.000    0.00
   0.820   21.16   -2.32    5.24   0.000   0.200   0.000    0.00
   0.830   21.45   -0.31    4.74   0.000   0.200   0.000    0.00
   0.840   21.12    1.44    5.18   0.000   0.200   0.000    0.00
   0.850   20.90    0.35    5.37   0.000   0.200   0.000    0.00
   0.860   21.19   -0.44    5.32   0.000   0.200   0.000    0.00
   0.870   21.32    0.21    5.49   0.000   0.200   0.000    0.00
   0.880   20.80    0.43    5.16   0.000   0.200   0.000    0.00
   0.890   20.70    1.07    4.86   0.000   0.200   0.000    0.00
   0.900   21.00   -0.43    5.49   0.000   0.200   0.000    0.00
   0.910   21.11   -1.95    5.28   0.000   0.200   0.000    0.00
   0.920   20.95   -1.78    5.09   0.000   0.200   0.000    0.00
   0.930   21.48   -0.44    5.41   0.000   0.200   0.000    0.00
   0.940   21.35   -1.11    5.12   0.000   0.200   0.000    0.00
   0.950   20.94   -1.70    5.23   0.000   0.200   0.000    0.00
   0.960   21.79   -1.06    5.52   0.000   0.200   0.000    0.00
   0.970   21.66   -1.53    5.34   0.000   0.200   0.000    0.00
   0.980   21.47   -1.25    5.69   0.000   0.200   0.000    0.00
   0.990   21.57    0.91    5.38   0.000   0.200   0.000    0.00
   1.000   21.62    1.24    5.24   0.000   0.200   0.000    0.00
   1.010   21.42    2.51    4.80   0.000   0.200   0.000    0.00
   1.020   21.71    2.87    4.61   0.000   0.200   0.000    0.00
   1.030   21.61    0.56    4.90   0.000   0.200   0.000    0.00
   1.040   21.10   -1.45    4.67   0.000   0.200   0.000    0.00
   1.050   20.76   -3.18    5.23   0.000   0.200   0.000    0.00
   1.060   20.84   -2.88    5.27   0.000   0.200   0.000    0.00
   1.070   20.86   -2.22    5.07   0.000   0.200   0.000    0.00
   1.080   20.90   -1.81    5.30   0.000   0.200   0.000    0.00
   1.090   21.25   -1.76    5.23   0.000   0.200   0.000    0.00
   1.100   20.71   -2.32    5.41   0.000   0.200   0.000    0.00
   1.110   20.26   -3.71    5.97   0.000   0.200   0.000    0.00
   1.120   20.12   -5.77    5.86   0.000   0.200   0.000    0.00
   1.130   20.04   -4.12    5.88   0.000   0.200   0.000    0.00
   1.140   20.60   -4.38    5.94   0.000   0.200   0.000    0.00
   1.150   20.38   -5.62    6.08   0.000   0.200   0.000    0.00
   1.160   21.16   -5.59    6.03   0.000   0.200   0.000    0.00
   1.170   21.25   -5.32    5.89   0.000   0.200   0.000    0.00
   1.180   21.30   -5.23    5.68   0.000   0.200   0.000    0.00
   1.190   21.26   -4.10    5.82   0.000   0.200   0.000    0.00
   1.200   21.11   -5.02    6.07   0.000   0.200   0.000    0.00
   1.210   21.43   -5.05    5.82   0.000   0.200   0.000    0.00
   1.220   21.01   -5.12    5.94   0.000   0.200   0.000    0.00
   1.230   21.04   -4.16    5.79   0.000   0.200   0.000    0.00
   1.240   20.56   -4.20    5.80   0.000   0.200   0.000    0.00
   1.250   20.41   -3.59    5.85   0.000   0.200   0.000    0.00
   1.260   20.68   -2.72    5.87   0.000   0.200   0.000    0.00
   1.270   21.15   -2.35    6.05   0.000   0.200   0.000    0.00
   1.280   20.69   -0.65    5.69   0.000   0.200   0.000    0.00
   1.290   20.54   -1.32    4.85   0.000   0.200   0.000    0.00
   1.300   20.83   -2.96    4.72   0.000   0.200   0.000    0.00
   1.310   21.32   -3.02    4.91   0.000   0.200   0.000    0.00
   1.320   21.68   -2.02    4.63   0.000   0.200   0.000    0.00
   1.330   21.21   -2.16    4.82   0.000   0.200   0.000    0.00
   1.340   20.83   -1.82    5.34   0.000   0.200   0.000    0.00
   1.350   20.99   -1.06    4.92   0.000   0.200   0.000    0.00
   1.360   20.90   -0.99    5.09   0.000   0.200   0.000    0.00
   1.370   20.96   -3.54    5.06   0.000   0.200   0.000    0.00
   1.380   20.37   -3.52    5.52   0.000   0.200   0.000    0.00
   1.390   19.99   -4.28    4.93   0.000   0.200   0.000    0.00
   1.400   20.33   -3.28    4.73   0.000   0.200   0.000    0.00
   1.410   20.42   -3.59    4.59   0.000   0.200   0.000    0.00
   1.420   20.54   -2.53    5.01   0.000   0.200   0.000    0.00
   1.430   20.34   -0.35    4.75   0.000   0.200   0.000    0.00
   1.440   20.63   -1.84    4.94   0.000   0.200   0.000    0.00
   1.450   20.93   -1.57    4.31   0.000   0.200   0.000    0.00
   1.460   21.08   -2.24    3.74   0.000   0.200   0.000    0.00
   1.470   21.04   -1.91    4.03   0.000   0.200   0.000    0.00
   1.480   20.93   -2.98    4.31   0.000   0.200   0.000    0.00
   1.490   21.11   -3.89    4.18   0.000   0.200   0.000    0.00
   1.500   20.85   -3.10    4.64   0.000   0.200   0.000    0.00
   1.510   20.70   -2.13    4.93   0.000   0.200   0.000    0.00
   1.520   20.29   -4.17    4.32   0.000   0.200   0.000    0.00
   1.530   20.09   -5.47    4.43   0.000   0.200   0.000    0.00
   1.540   20.30   -4.08    4.89   0.000   0.200   0.000    0.00
   1.550   20.06   -5.43    4.80   0.000   0.200   0.000    0.00
   1.560   19.93   -5.63    5.30   0.000   0.200   0.000    0.00
   1.570   19.95   -5.14    5.34   0.000   0.200   0.000    0.00
   1.580   20.07   -3.68    4.86   0.000   0.200   0.000    0.00
   1.590   19.52   -5.08    4.94   0.000   0.200   0.000    0.00
   1.600   19.69   -4.55    4.83   0.000   0.200   0.000    0.00
   1.610   19.69   -4.45    5.21   0.000   0.200   0.000    0.00
   1.620   19.58   -4.39    5.54   0.000   0.200   0.000    0.00
   1.630   19.93   -5.45    5.20   0.000   0.200   0.000    0.00
   1.640   20.31   -6.28    4.95   0.000   0.200   0.000    0.00
   1.650   20.52   -5.69    5.78   0.000   0.200   0.000    0.00
   1.660   21.02   -5.04    6.03   0.000   0.200   0.000    0.00
   1.670   20.84   -5.87    5.87   0.000   0.200   0.000    0.00
   1.680   20.88   -7.35    6.58   0.000   0.200   0.000    0.00
   1.690   20.33   -5.84    6.89   0.000   0.200   0.000    0.00
   1.700   20.47   -6.37    6.17   0.000   0.200   0.000    0.00
   1.710   20.57   -5.67    6.53   0.000   0.200   0.000    0.00
   1.720   20.72   -5.51    6.07   0.000   0.200   0.000    0.00
   1.730   20.36   -6.13    5.75   0.000   0.200   0.000    0.00
   1.740   20.89   -6.27    5.52   0.000   0.200   0.000    0.00
   1.750   20.93   -7.49    5.27   0.000   0.200   0.000    0.00
   1.760   20.92   -8.32    6.32   0.000   0.200   0.000    0.00
   1.770   21.13   -9.29    6.49   0.000   0.200   0.000    0.00
   1.780   21.00   -9.84    6.22   0.000   0.200   0.000    0.00
   1.790   20.75  -10.51    6.43   0.000   0.200   0.000    0.00
   1.800   20.54  -10.58    5.98   0.000   0.200   0.000    0.00
   1.810   20.43   -9.27    5.20   0.000   0.200   0.000    0.00
   1.820   20.72   -8.69    4.76   0.000   0.200   0.000    0.00
   1.830   20.93   -7.79    4.02   0.000   0.200   0.000    0.00
   1.840   21.19   -7.41    3.81   0.000   0.200   0.000    0.00
   1.850   21.21   -5.63    4.27   0.000   0.200   0.000    0.00
   1.860   20.93   -5.46    4.72   0.000   0.200   0.000    0.00
   1.870   21.41   -6.80    4.60   0.000   0.200   0.000    0.00
   1.880   21.51   -5.33    4.51   0.000   0.200   0.000    0.00
   1.890   21.61   -5.14    4.78   0.000   0.200   0.000    0.00
   1.900   21.65   -5.99    5.24   0.000   0.200   0.000    0.00
   1.910   21.52   -5.22    5.51   0.000   0.200   0.000    0.00
   1.920   21.43   -5.31    5.73   0.000   0.200   0.000    0.00
   1.930   21.38   -4.47    5.48   0.000   0.200   0.000    0.00
   1.940   20.84   -4.16    5.62   0.000   0.200   0.000    0.00
   1.950   21.04   -2.87    5.46   0.000   0.200   0.000    0.00
   1.960   21.00   -3.22    5.79   0.000   0.200   0.000    0.00
   1.970   20.98   -4.99    6.03   0.000   0.200   0.000    0.00
   1.980   21.25   -4.75    6.51   0.000   0.200   0.000    0.00
   1.990   21.13   -5.45    7.00   0.000   0.200   0.000    0.00
   2.000   21.31   -6.34    6.77   0.000   0.200   0.000    0.00
   2.010   21.50   -6.46    6.12   0.000   0.200   0.000    0.00
   2.020   21.51   -7.41    5.73   0.000   0.200   0.000    0.00
   2.030   21.25   -8.11    6.02   0.000   0.200   0.000    0.00
   2.040   21.54   -8.96    6.10   0.000   0.200   0.000    0.00
   2.050   21.64   -8.62    6.48   0.000   0.200   0.000    0.00
   2.060   21.56   -8.75    6.86   0.000   0.200   0.000    0.00
   2.070   21.47   -9.20    6.70   0.000   0.200   0.000    0.00
   2.080   22.01  -10.33    6.72   0.000   0.200   0.000    0.00
   2.090   21.86  -10.19    6.52   0.000   0.200   0.000    0.00
   2.100   21.75  -10.48    6.46   0.000   0.200   0.000    0.00
   2.110   22.18  -11.04    6.43   0.000   0.200   0.000    0.00
   2.120   22.74  -10.62    6.30   0.000   0.200   0.000    0.00
   2.130   22.85  -10.42    6.68   0.000   0.200   0.000    0.00
   2.140   22.84  -10.63    6.81   0.000   0.200   0.000    0.00
   2.150   22.93  -11.29    6.60   0.000   0.200   0.000    0.00
   2.160   23.54  -11.03    6.84   0.000   0.200   0.000    0.00
   2.170   23.77  -12.23    6.77   0.000   0.200   0.000    0.00
   2.180   24.11  -11.66    5.72   0.000   0.200   0.000    0.00
   2.190   24.09  -10.61    6.01   0.000   0.200   0.000    0.00
   2.200   23.16  -11.22    5.97   0.000   0.200   0.000    0.00
   2.210   23.18  -12.43    5.31   0.000   0.200   0.000    0.00
   2.220   23.63  -13.24    5.28   0.000   0.200   0.000    0.00
   2.230   24.35  -13.75    5.37   0.000   0.200   0.000    0.00
   2.240   24.00  -13.08    5.57   0.000   0.200   0.000    0.00
   2.250   23.71  -12.94    5.26   0.000   0.200   0.000    0.00
   2.260   23.87  -11.66    5.02   0.000   0.200   0.000    0.00
   2.270   23.96  -11.00    5.51   0.000   0.200   0.000    0.00
   2.280   23.80  -12.57    5.63   0.000   0.200   0.000    0.00
   2.290   23.65  -12.93    5.35   0.000   0.200   0.000    0.00
   2.300   23.38  -12.80    5.71   0.000   0.200   0.000    0.00
   2.310   23.25  -12.40    5.45   0.000   0.200   0.000    0.00
   2.320   22.78  -11.96    6.18   0.000   0.200   0.000    0.00
   2.330   22.36  -11.91    5.58   0.000   0.200   0.000    0.00
   2.340   22.22  -11.03    5.57   0.000   0.200   0.000    0.00
   2.350   22.10  -10.15    5.84   0.000   0.200   0.000    0.00
   2.360   22.11  -10.20    5.82   0.000   0.200   0.000    0.00
   2.370   22.68  -10.08    5.92   0.000   0.200   0.000    0.00
   2.380   22.92  -11.44    5.73   0.000   0.200   0.000    0.00
   2.390   22.48   -9.75    5.59   0.000   0.200   0.000    0.00
   2.400   23.02  -10.05    5.74   0.000   0.200   0.000    0.00
   2.410   22.76  -10.98    6.02   0.000   0.200   0.000    0.00
   2.420   22.55  -11.89    5.93   0.000   0.200   0.000    0.00
   2.430   22.27  -11.80    5.80   0.000   0.200   0.000    0.00
   2.440   22.20  -13.32    5.72   0.000   0.200   0.000    0.00
   2.450   22.19  -13.26    5.87   0.000   0.200   0.000    0.00
   2.460   22.17  -14.33    6.49   0.000   0.200   0.000    0.00
   2.470   22.12  -14.27    6.42   0.000   0.200   0.000    0.00
   2.480   22.69  -12.99    6.45   0.000   0.200   0.000    0.00
   2.490   22.93  -12.93    6.48   0.000   0.200   0.000    0.00
   2.500   23.37  -13.46    5.81   0.000   0.200   0.000    0.00
   2.510   24.15  -12.61    6.17   0.000   0.200   0.000    0.00
   2.520   24.14  -13.11    6.34   0.000   0.200   0.000    0.00
   2.530   24.16  -12.93    6.75   0.000   0.200   0.000    0.00
   2.540   24.25  -12.18    7.59   0.000   0.200   0.000    0.00
   2.550   23.85  -11.59    7.72   0.000   0.200   0.000    0.00
   2.560   24.32  -11.14    7.52   0.000   0.200   0.000    0.00
   2.570   23.73  -11.08    7.55   0.000   0.200   0.000    0.00
   2.580   23.91  -10.12    7.69   0.000   0.200   0.000    0.00
   2.590   24.22  -10.31    7.21   0.000   0.200   0.000    0.00
   2.600   24.37  -10.15    6.35   0.000   0.200   0.000    0.00
   2.610   23.74  -11.03    6.71   0.000   0.200   0.000    0.00
   2.620   24.04  -11.11    6.90   0.000   0.200   0.000    0.00
   2.630   24.13  -11.41    6.62   0.000   0.200   0.000    0.00
   2.640   24.42  -12.45    6.20   0.000   0.200   0.000    0.00
   2.650   24.08  -12.58    6.61   0.000   0.200   0.000    0.00
   2.660   23.48  -13.35    6.84   0.000   0.200   0.000    0.00
   2.670   23.99  -13.97    6.72   0.000   0.200   0.000    0.00
   2.680   24.11  -14.37    6.87   0.000   0.200   0.000    0.00
   2.690   23.67  -14.04    6.95   0.000   0.200   0.000    0.00
   2.700   23.55  -13.97    6.63   0.000   0.200   0.000    0.00
   2.710   23.66  -15.28    6.48   0.000   0.200   0.000    0.00
   2.720   23.43  -15.81    6.67   0.000   0.200   0.000    0.00
   2.730   23.35  -15.52    6.46   0.000   0.200   0.000    0.00
   2.740   23.55  -15.08    6.48   0.000   0.200   0.000    0.00
   2.750   23.46  -13.41    6.20   0.000   0.200   0.000    0.00
   2.760   23.33  -14.44    6.19   0.000   0.200   0.000    0.00
   2.770   23.27  -14.99    6.42   0.000   0.200   0.000    0.00
   2.780   23.16  -14.28    6.79   0.000   0.200   0.000    0.00
   2.790   23.42  -13.28    7.06   0.000   0.200   0.000    0.00
   2.800   23.70  -10.80    6.89   0.000   0.200   0.000    0.00
   2.810   23.14   -9.01    6.88   0.000   0.200   0.000    0.00
   2.820   23.47   -9.28    7.33   0.000   0.200   0.000    0.00
   2.830   23.54  -10.36    7.34   0.000   0.200   0.000    0.00
   2.840   23.24  -10.41    6.56   0.000   0.200   0.000    0.00
   2.850   23.32  -10.77    6.35   0.000   0.200   0.000    0.00
   2.860   23.76  -11.42    6.53   0.000   0.200   0.000    0.00
   2.870   23.49  -11.28    6.53   0.000   0.200   0.000    0.00
   2.880   23.40  -11.80    5.96   0.000   0.200   0.000    0.00
   2.890   23.16  -11.27    6.21   0.000   0.200   0.000    0.00
   2.900   23.27  -11.99    6.72   0.000   0.200   0.000    0.00
   2.910   23.09  -12.24    6.78   0.000   0.200   0.000    0.00
   2.920   23.35  -12.65    6.36   0.000   0.200   0.000    0.00
   2.930   23.62  -13.48    6.05   0.000   0.200   0.000    0.00
   2.940   23.62  -10.87    5.98   0.000   0.200   0.000    0.00
   2.950   23.63  -10.81    6.19   0.000   0.200   0.000    0.00
   2.960   23.41  -12.98    5.51   0.000   0.200   0.000    0.00
   2.970   23.36  -12.68    5.67   0.000   0.200   0.000    0.00
   2.980   23.58  -13.40    5.60   0.000   0.200   0.000    0.00
   2.990   23.43  -13.82    5.79   0.000   0.200   0.000    0.00
   3.000   23.59  -13.05    6.23   0.000   0.200   0.000    0.00
   3.010   23.53  -12.61    5.81   0.000   0.200   0.000    0.00
   3.020   22.76  -13.04    5.93   0.000   0.200   0.000    0.00
   3.030   22.39  -12.15    6.54   0.000   0.200   0.000    0.00
   3.040   22.35  -12.96    6.88   0.000   0.200   0.000    0.00
   3.050   22.81  -12.97    7.07   0.000   0.200   0.000    0.00
   3.060   23.40  -10.98    6.88   0.000   0.200   0.000    0.00
   3.070   24.19  -11.55    6.69   0.000   0.200   0.000    0.00
   3.080   24.23  -12.25    7.27   0.000   0.200   0.000    0.00
   3.090   23.95  -12.00    7.32   0.000   0.200   0.000    0.00
   3.100   23.53  -11.39    7.40   0.000   0.200   0.000    0.00
   3.110   23.80  -11.51    7.54   0.000   0.200   0.000    0.00
   3.120   24.17  -11.09    7.34   0.000   0.200   0.000    0.00
   3.130   23.72   -9.76    7.71   0.000   0.200   0.000    0.00
   3.140   23.76  -10.31    7.38   0.000   0.200   0.000    0.00
   3.150   23.82   -9.53    6.99   0.000   0.200   0.000    0.00
   3.160   23.95   -9.18    6.89   0.000   0.200   0.000    0.00
   3.170   23.96   -6.68    6.72   0.000   0.200   0.000    0.00
   3.180   23.62   -4.53    6.70   0.000   0.200   0.000    0.00
   3.190   23.73   -4.70    6.27   0.000   0.200   0.000    0.00
   3.200   23.47   -4.82    6.23   0.000   0.200   0.000    0.00
   3.210   23.59   -6.50    6.58   0.000   0.200   0.000    0.00
   3.220   23.60   -7.98    7.22   0.000   0.200   0.000    0.00
   3.230   23.63   -7.50    7.07   0.000   0.200   0.000    0.00
   3.240   23.11   -6.62    7.10   0.000   0.200   0.000    0.00
   3.250   23.08   -7.21    6.68   0.000   0.200   0.000    0.00
   3.260   23.17   -7.60    7.20   0.000   0.200   0.000    0.00
   3.270   24.04   -7.49    7.16   0.000   0.200   0.000    0.00
   3.280   24.90   -7.59    6.66   0.000   0.200   0.000    0.00
   3.290   25.39   -7.05    6.31   0.000   0.200   0.000    0.00
   3.300   25.63   -7.05    6.36   0.000   0.200   0.000    0.00
   3.310   25.35   -7.15    5.90   0.000   0.200   0.000    0.00
   3.320   25.35   -6.50    6.09   0.000   0.200   0.000    0.00
   3.330   25.54   -7.32    6.02   0.000   0.200   0.000    0.00
   3.340   25.94   -7.63    6.04   0.000   0.200   0.000    0.00
   3.350   25.87   -6.24    5.72   0.000   0.200   0.000    0.00
   3.360   26.14   -5.94    5.78   0.000   0.200   0.000    0.00
   3.370   25.93   -7.62    5.94   0.000   0.200   0.000    0.00
   3.380   25.68   -7.69    5.99   0.000   0.200   0.000    0.00
   3.390   25.47   -7.14    5.46   0.000   0.200   0.000    0.00
   3.400   25.24   -7.25    5.46   0.000   0.200   0.000    0.00
   3.410   25.45   -6.50    5.55   0.000   0.200   0.000    0.00
   3.420   25.56   -7.59    4.85   0.000   0.200   0.000    0.00
   3.430   25.08   -7.53    4.55   0.000   0.200   0.000    0.00
   3.440   25.48   -8.42    4.61   0.000   0.200   0.000    0.00
   3.450   25.27   -9.25    4.57   0.000   0.200   0.000    0.00
   3.460   25.26   -9.06    4.64   0.000   0.200   0.000    0.00
   3.470   25.13   -5.89    5.05   0.000   0.200   0.000    0.00
   3.480   24.87   -5.45    5.15   0.000   0.200   0.000    0.00
   3.490   24.71   -7.55    4.62   0.000   0.200   0.000    0.00
   3.500   24.28   -8.91    4.35   0.000   0.200   0.000    0.00
   3.510   24.73   -7.71    4.66   0.000   0.200   0.000    0.00
   3.520   24.36   -5.58    4.70   0.000   0.200   0.000    0.00
   3.530   24.18   -4.23    5.18   0.000   0.200   0.000    0.00
   3.540   24.22   -5.47    5.54   0.000   0.200   0.000    0.00
   3.550   24.61   -6.15    5.56   0.000   0.200   0.000    0.00
   3.560   24.73   -6.84    5.28   0.000   0.200   0.000    0.00
   3.570   25.14   -5.78    5.05   0.000   0.200   0.000    0.00
   3.580   25.12   -6.59    4.70   0.000   0.200   0.000    0.00
   3.590   25.15   -7.51    4.67   0.000   0.200   0.000    0.00
   3.600   25.10   -8.07    5.56   0.000   0.200   0.000    0.00
   3.610   24.78   -8.40    5.16   0.000   0.200   0.000    0.00
   3.620   24.65   -7.83    4.47   0.000   0.200   0.000    0.00
   3.630   24.90   -7.19    4.75   0.000   0.200   0.000    0.00
   3.640   24.48   -7.59    4.54   0.000   0.200   0.000    0.00
   3.650   24.49   -7.44    3.71   0.000   0.200   0.000    0.00
   3.660   24.76   -8.73    3.79   0.000   0.200   0.000    0.00
   3.670   24.64   -9.82    3.43   0.000   0.200   0.000    0.00
   3.680   24.57   -8.76    2.63   0.000   0.200   0.000    0.00
   3.690   25.04   -8.57    2.68   0.000   0.200   0.000    0.00
   3.700   24.86   -8.70    2.50   0.000   0.200   0.000    0.00
   3.710   24.30   -7.73    2.48   0.000   0.200   0.000    0.00
   3.720   24.43   -8.12    2.74   0.000   0.200   0.000    0.00
   3.730   24.54   -8.19    2.44   0.000   0.200   0.000    0.00
   3.740   24.56   -7.34    2.86   0.000   0.200   0.000    0.00
   3.750   24.57   -6.58    3.16   0.000   0.200   0.000    0.00
   3.760   25.06   -7.65    2.92   0.000   0.200   0.000    0.00
   3.770   25.14   -7.71    2.19   0.000   0.200   0.000    0.00
   3.780   25.55   -7.29    1.90   0.000   0.200   0.000    0.00
   3.790   25.75   -6.90    1.86   0.000   0.200   0.000    0.00
   3.800   25.42   -5.42    1.75   0.000   0.200   0.000    0.00
   3.810   25.91   -5.99    1.81   0.000   0.200   0.000    0.00
   3.820   25.55   -4.18    1.16   0.000   0.200   0.000    0.00
   3.830   25.01   -4.34    1.19   0.000   0.200   0.000    0.00
   3.840   24.92   -5.07    1.76   0.000   0.200   0.000    0.00
   3.850   24.86   -5.60    1.26   0.000   0.200   0.000    0.00
   3.860   24.77   -5.34    1.11   0.000   0.200   0.000    0.00
   3.870   24.51   -5.65    1.59   0.000   0.200   0.000    0.00
   3.880   24.42   -5.52    1.96   0.000   0.200   0.000    0.00
   3.890   24.07   -3.66    1.98   0.000   0.200   0.000    0.00
   3.900   24.43   -1.75    1.37   0.000   0.200   0.000    0.00
   3.910   25.28   -1.65    1.72   0.000   0.200   0.000    0.00
   3.920   25.28   -1.35    2.02   0.000   0.200   0.000    0.00
   3.930   24.73   -1.22    2.00   0.000   0.200   0.000    0.00
   3.940   24.36   -1.00    2.08   0.000   0.200   0.000    0.00
   3.950   24.29   -3.08    2.21   0.000   0.200   0.000    0.00
   3.960   25.21   -3.50    2.75   0.000   0.200   0.000    0.00
   3.970   25.57   -3.00    2.43   0.000   0.200   0.000    0.00
   3.980   25.86   -2.31    1.81   0.000   0.200   0.000    0.00
   3.990   26.07   -2.71    1.93   0.000   0.200   0.000    0.00
   4.000   25.62   -3.27    2.43   0.000   0.200   0.000    0.00
   4.010   26.08   -3.94    2.22   0.000   0.200   0.000    0.00
   4.020   26.03   -2.71    2.41   0.000   0.200   0.000    0.00
   4.030   25.82   -2.42    2.61   0.000   0.200   0.000    0.00
   4.040   25.35   -1.94    3.02   0.000   0.200   0.000    0.00
   4.050   25.18   -0.89    2.84   0.000   0.200   0.000    0.00
   4.060   25.71   -0.84    2.98   0.000   0.200   0.000    0.00
   4.070   24.92   -0.57    3.22   0.000   0.200   0.000    0.00
   4.080   25.55   -1.53    3.40   0.000   0.200   0.000    0.00
   4.090   25.24   -1.84    3.56   0.000   0.200   0.000    0.00
   4.100   25.57   -2.40    3.41   0.000   0.200   0.000    0.00
   4.110   25.35   -2.49    3.29   0.000   0.200   0.000    0.00
   4.120   25.14   -1.12    3.25   0.000   0.200   0.000    0.00
   4.130   24.88   -0.79    3.71   0.000   0.200   0.000    0.00
   4.140   24.89   -2.69    3.93   0.000   0.200   0.000    0.00
   4.150   25.31   -2.89    3.72   0.000   0.200   0.000    0.00
   4.160   25.32   -2.91    3.81   0.000   0.200   0.000    0.00
   4.170   25.04   -4.57    3.95   0.000   0.200   0.000    0.00
   4.180   25.20   -4.23    4.18   0.000   0.200   0.000    0.00
   4.190   25.30   -4.60    4.08   0.000   0.200   0.000    0.00
   4.200   25.30   -5.17    3.81   0.000   0.200   0.000    0.00
   4.210   25.44   -4.09    3.82   0.000   0.200   0.000    0.00
   4.220   26.11   -4.16    4.39   0.000   0.200   0.000    0.00
   4.230   26.02   -4.43    4.35   0.000   0.200   0.000    0.00
   4.240   26.31   -7.22    4.45   0.000   0.200   0.000    0.00
   4.250   26.12   -7.62    4.00   0.000   0.200   0.000    0.00
   4.260   25.83   -6.23    3.94   0.000   0.200   0.000    0.00
   4.270   25.70   -5.35    4.38   0.000   0.200   0.000    0.00
   4.280   25.16   -4.49    4.19   0.000   0.200   0.000    0.00
   4.290   24.43   -4.64    3.94   0.000   0.200   0.000    0.00
   4.300   24.34   -4.43    3.74   0.000   0.200   0.000    0.00
   4.310   24.36   -5.12    4.54   0.000   0.200   0.000    0.00
   4.320   24.06   -5.66    4.73   0.000   0.200   0.000    0.00
   4.330   24.14   -4.74    5.18   0.000   0.200   0.000    0.00
   4.340   23.92   -5.70    4.76   0.000   0.200   0.000    0.00
   4.350   23.76   -6.86    4.26   0.000   0.200   0.000    0.00
   4.360   23.72   -5.56    4.08   0.000   0.200   0.000    0.00
   4.370   23.51   -5.10    3.64   0.000   0.200   0.000    0.00
   4.380   24.16   -5.67    3.81   0.000   0.200   0.000    0.00
   4.390   23.98   -4.43    3.44   0.000   0.200   0.000    0.00
   4.400   23.86   -3.43    3.84   0.000   0.200   0.000    0.00
   4.410   23.75   -2.71    4.38   0.000   0.200   0.000    0.00
   4.420   23.83   -2.69    4.20   0.000   0.200   0.000    0.00
   4.430   24.07   -2.75    3.84   0.000   0.200   0.000    0.00
   4.440   23.85   -2.44    4.31   0.000   0.200   0.000    0.00
   4.450   23.57   -2.08    4.13   0.000   0.200   0.000    0.00
   4.460   23.31   -2.49    3.10   0.000   0.200   0.000    0.00
   4.470   23.11   -1.43    3.64   0.000   0.200   0.000    0.00
   4.480   23.28   -2.85    2.99   0.000   0.200   0.000    0.00
   4.490   23.78   -2.18    2.89   0.000   0.200   0.000    0.00
   4.500   23.56   -0.61    3.71   0.000   0.200   0.000    0.00
   4.510   23.33    0.08    4.35   0.000   0.200   0.000    0.00
   4.520   23.87   -0.69    4.01   0.000   0.200   0.000    0.00
   4.530   23.76   -1.38    3.58   0.000   0.200   0.000    0.00
   4.540   23.62   -0.14    3.77   0.000   0.200   0.000    0.00