! This hub-height wind-speed file was generated by TurbSim (from OpenFAST--128-NOTFOUND) on 23-Aug-2023 at 09:41:11.
!
! The requested statistics for this data were:
!    Mean Total Wind Speed =   20.000 m/s
!    Turbulence Intensity  =   14.420%
!
!   Time  HorSpd  WndDir  VerSpd  HorShr  VerShr  LnVShr  GstSpd
!  (sec)   (m/s)   (deg)   (m/s)     (-)     (-)     (-)   (m/s)
   0.000   19.85    4.36    0.16   0.000   0.200   0.000    0.00
   0.010   19.83    4.10    0.50   0.000   0.200   0.000    0.00
   0.020   19.89    2.41    0.42   0.000   0.200   0.000    0.00
   0.030   19.65    1.65    0.48   0.000   0.200   0.000    0.00
   0.040   19.73    1.62    0.50   0.000   0.200   0.000    0.00
   0.050   19.93    0.78    0.78   0.000   0.200   0.000    0.00
   0.060   19.54   -1.42    1.07   0.000   0.200   0.000    0.00
   0.070   20.06   -1.16    0.58   0.000   0.200   0.000    0.00
   0.080   19.82   -2.57    0.84   0.000   0.200   0.000    0.00
   0.090   19.60   -0.91    0.83   0.000   0.200   0.000    0.00
   0.100   19.60    0.07    1.23   0.000   0.200   0.000    0.00
   0.110   19.37   -0.97    1.67   0.000   0.200   0.000    0.00
   0.120   19.12   -0.90    1.72   0.000   0.200   0.000    0.00
   0.130   19.10   -0.63    1.63   0.000   0.200   0.000    0.00
   0.140   19.12    0.66    1.09   0.000   0.200   0.000    0.00
   0.150   19.45    1.27    1.47   0.000   0.200   0.000    0.00
   0.160   19.55    2.78    1.96   0.000   0.200   0.000    0.00
   0.170   20.30    2.99    2.13   0.000   0.200   0.000    0.00
   0.180   20.32    2.33    2.43   0.000   0.200   0.000    0.00
   0.190   20.27    1.49    2.21   0.000   0.200   0.000    0.00
   0.200   20.09    2.24    2.69   0.000   0.200   0.000    0.00
   0.210   20.30    2.39    2.65   0.000   0.200   0.000    0.00
   0.220   20.05    0.51    1.97   0.000   0.200   0.000    0.00
   0.230   19.64    2.82    1.45   0.000   0.200   0.000    0.00
   0.240   19.98    1.68    1.39   0.000   0.200   0.000    0.00
   0.250   20.79    1.14    1.66   0.000   0.200   0.000    0.00
   0.260   21.39    1.16    1.31   0.000   0.200   0.000    0.00
   0.270   21.41    2.54    1.64   0.000   0.200   0.000    0.00
   0.280   21.06    2.69    1.46   0.000   0.200   0.000    0.00
   0.290   21.03    1.97    1.04   0.000   0.200   0.000    0.00
   0.300   21.51    2.14    0.80   0.000   0.200   0.000    0.00
   0.310   21.18    2.68    0.63   0.000   0.200   0.000    0.00
   0.320   21.17    0.38    0.46   0.000   0.200   0.000    0.00
   0.330   21.15   -0.32   -0.17   0.000   0.200   0.000    0.00
   0.340   20.94    2.39    0.14   0.000   0.200   0.000    0.00
   0.350   21.28    2.05    0.75   0.000   0.200   0.000    0.00
   0.360   21.31    2.75    0.79   0.000   0.200   0.000    0.00
   0.370   21.19    2.48    0.74   0.000   0.200   0.000    0.00
   0.380   20.79    0.12    0.37   0.000   0.200   0.000    0.00
   0.390   20.44    0.24   -0.09   0.000   0.200   0.000    0.00
   0.400   20.61    0.11   -0.34   0.000   0.200   0.000    0.00
   0.410   20.63   -0.94    0.25   0.000   0.200   0.000    0.00
   0.420   20.97    0.21    0.39   0.000   0.200   0.000    0.00
   0.430   20.58   -1.29    0.12   0.000   0.200   0.000    0.00
   0.440   20.38   -2.59   -0.27   0.000   0.200   0.000    0.00
   0.450   20.73   -3.11   -0.11   0.000   0.200   0.000    0.00
   0.460   20.52   -2.84   -0.57   0.000   0.200   0.000    0.00
   0.470   20.29   -2.07   -0.31   0.000   0.200   0.000    0.00
   0.480   20.33   -0.45   -0.82   0.000   0.200   0.000    0.00
   0.490   20.94   -1.46   -0.29   0.000   0.200   0.000    0.00
   0.500   20.81   -1.27   -0.28   0.000   0.200   0.000    0.00
   0.510   20.70    0.09   -0.36   0.000   0.200   0.000    0.00
   0.520   20.78   -1.24   -0.81   0.000   0.200   0.000    0.00
   0.530   21.05   -1.78   -0.28   0.000   0.200   0.000    0.00
   0.540   21.69   -0.77   -0.70   0.000   0.200   0.000    0.00
   0.550   22.04   -0.20   -1.05   0.000   0.200   0.000    0.00
   0.560   21.74    0.17   -0.04   0.000   0.200   0.000    0.00
   0.570   21.81    0.75   -0.06   0.000   0.200   0.000    0.00
   0.580   21.62    0.63   -0.34   0.000   0.200   0.000    0.00
   0.590   20.95    0.93   -1.11   0.000   0.200   0.000    0.00
   0.600   20.88    1.13   -0.35   0.000   0.200   0.000    0.00
   0.610   20.86    0.71    0.60   0.000   0.200   0.000    0.00
   0.620   21.29    0.12    0.27   0.000   0.200   0.000    0.00
   0.630   21.93    0.46   -0.38   0.000   0.200   0.000    0.00
   0.640   22.30    0.63   -0.26   0.000   0.200   0.000    0.00
   0.650   22.26    0.41   -0.81   0.000   0.200   0.000    0.00
   0.660   21.86    0.18   -0.61   0.000   0.200   0.000    0.00
   0.670   22.00    1.18   -1.32   0.000   0.200   0.000    0.00
   0.680   21.82    2.30   -1.94   0.000   0.200   0.000    0.00
   0.690   21.64    2.19   -2.00   0.000   0.200   0.000    0.00
   0.700   21.44    1.14   -1.57   0.000   0.200   0.000    0.00
   0.710   21.39   -0.06   -1.46   0.000   0.200   0.000    0.00
   0.720   21.44   -0.45   -1.39   0.000   0.200   0.000    0.00
   0.730   21.56    2.78   -0.51   0.000   0.200   0.000    0.00
   0.740   21.42    4.25   -0.26   0.000   0.200   0.000    0.00
   0.750   21.24    2.26   -1.05   0.000   0.200   0.000    0.00
   0.760   21.29    3.43   -0.96   0.000   0.200   0.000    0.00
   0.770   21.41    2.87   -1.09   0.000   0.200   0.000    0.00
   0.780   21.51    2.00   -1.04   0.000   0.200   0.000    0.00
   0.790   21.84    2.16   -0.82   0.000   0.200   0.000    0.00
   0.800   22.18    1.06   -1.10   0.000   0.200   0.000    0.00
   0.810   21.99   -0.01   -0.83   0.000   0.200   0.000    0.00
   0.820   21.88    0.20   -0.74   0.000   0.200   0.000    0.00
   0.830   21.39   -1.09   -1.50   0.000   0.200   0.000    0.00
   0.840   21.40   -0.59   -1.27   0.000   0.200   0.000    0.00
   0.850   21.11   -2.48   -1.16   0.000   0.200   0.000    0.00
   0.860   21.77   -3.89   -1.41   0.000   0.200   0.000    0.00
   0.870   21.36   -5.05   -1.01   0.000   0.200   0.000    0.00
   0.880   21.49   -3.93   -1.08   0.000   0.200   0.000    0.00
   0.890   21.60   -4.16   -1.16   0.000   0.200   0.000    0.00
   0.900   21.84   -4.08   -0.67   0.000   0.200   0.000    0.00
   0.910   22.12   -4.29   -0.79   0.000   0.200   0.000    0.00
   0.920   21.83   -3.69   -0.81   0.000   0.200   0.000    0.00
   0.930   22.28   -4.85   -0.11   0.000   0.200   0.000    0.00
   0.940   22.35   -3.22    0.07   0.000   0.200   0.000    0.00
   0.950   21.95   -3.18    0.18   0.000   0.200   0.000    0.00
   0.960   20.94   -2.85    0.51   0.000   0.200   0.000    0.00
   0.970   20.07   -3.06    0.29   0.000   0.200   0.000    0.00
   0.980   20.30   -2.85    0.25   0.000   0.200   0.000    0.00
   0.990   20.53   -2.12    0.68   0.000   0.200   0.000    0.00
   1.000   20.23   -1.76    0.49   0.000   0.200   0.000    0.00
   1.010   20.42   -0.50    0.68   0.000   0.200   0.000    0.00
   1.020   19.96   -0.84    0.93   0.000   0.200   0.000    0.00
   1.030   19.76   -0.08    1.11   0.000   0.200   0.000    0.00
   1.040   19.73   -0.55    0.89   0.000   0.200   0.000    0.00
   1.050   20.10   -0.79    0.99   0.000   0.200   0.000    0.00
   1.060   20.77   -0.49    1.87   0.000   0.200   0.000    0.00
   1.070   20.79   -0.07    2.31   0.000   0.200   0.000    0.00
   1.080   20.95   -0.66    2.50   0.000   0.200   0.000    0.00
   1.090   20.35   -0.03    2.31   0.000   0.200   0.000    0.00
   1.100   20.49    0.82    2.11   0.000   0.200   0.000    0.00
   1.110   20.43   -0.67    2.62   0.000   0.200   0.000    0.00
   1.120   20.85   -0.73    2.63   0.000   0.200   0.000    0.00
   1.130   19.95    0.53    2.10   0.000   0.200   0.000    0.00
   1.140   19.95    0.46    1.68   0.000   0.200   0.000    0.00
   1.150   20.05   -0.35    1.23   0.000   0.200   0.000    0.00
   1.160   20.37    0.98    0.99   0.000   0.200   0.000    0.00
   1.170   20.38    1.58    1.11   0.000   0.200   0.000    0.00
   1.180   20.25    2.43    1.53   0.000   0.200   0.000    0.00
   1.190   19.97    0.49    1.62   0.000   0.200   0.000    0.00
   1.200   19.83    0.36    1.89   0.000   0.200   0.000    0.00
   1.210   20.09   -0.56    2.20   0.000   0.200   0.000    0.00
   1.220   20.44   -0.03    2.51   0.000   0.200   0.000    0.00
   1.230   20.17   -0.51    2.16   0.000   0.200   0.000    0.00
   1.240   19.80    1.26    1.92   0.000   0.200   0.000    0.00
   1.250   19.70    1.18    2.60   0.000   0.200   0.000    0.00
   1.260   19.66    0.32    2.42   0.000   0.200   0.000    0.00
   1.270   19.89   -0.93    2.37   0.000   0.200   0.000    0.00
   1.280   20.28   -1.12    2.64   0.000   0.200   0.000    0.00
   1.290   20.38   -1.08    2.71   0.000   0.200   0.000    0.00
   1.300   21.05   -1.95    2.27   0.000   0.200   0.000    0.00
   1.310   20.83   -1.66    1.55   0.000   0.200   0.000    0.00
   1.320   20.56   -1.87    1.92   0.000   0.200   0.000    0.00
   1.330   20.83   -0.69    2.15   0.000   0.200   0.000    0.00
   1.340   20.64   -2.60    1.73   0.000   0.200   0.000    0.00
   1.350   20.69   -2.12    1.68   0.000   0.200   0.000    0.00
   1.360   20.98   -0.51    1.45   0.000   0.200   0.000    0.00
   1.370   21.09    1.32    1.68   0.000   0.200   0.000    0.00
   1.380   21.00    0.54    1.98   0.000   0.200   0.000    0.00
   1.390   21.21    0.07    2.05   0.000   0.200   0.000    0.00
   1.400   21.25    0.17    2.50   0.000   0.200   0.000    0.00
   1.410   21.23    1.50    2.08   0.000   0.200   0.000    0.00
   1.420   21.24    1.01    1.52   0.000   0.200   0.000    0.00
   1.430   21.39    2.17    1.11   0.000   0.200   0.000    0.00
   1.440   22.26    2.91    1.25   0.000   0.200   0.000    0.00
   1.450   22.15    3.62    0.94   0.000   0.200   0.000    0.00
   1.460   22.22    5.00    0.80   0.000   0.200   0.000    0.00
   1.470   22.38    5.01    1.22   0.000   0.200   0.000    0.00
   1.480   22.59    5.09    2.06   0.000   0.200   0.000    0.00
   1.490   22.74    3.70    2.25   0.000   0.200   0.000    0.00
   1.500   23.23    3.04    1.57   0.000   0.200   0.000    0.00
   1.510   23.39    4.27    1.68   0.000   0.200   0.000    0.00
   1.520   23.11    3.75    1.79   0.000   0.200   0.000    0.00
   1.530   22.96    2.87    1.30   0.000   0.200   0.000    0.00
   1.540   22.61    2.50    1.60   0.000   0.200   0.000    0.00
   1.550   23.37    2.75    2.10   0.000   0.200   0.000    0.00
   1.560   23.34    1.67    2.42   0.000   0.200   0.000    0.00
   1.570   23.89    2.23    2.79   0.000   0.200   0.000    0.00
   1.580   23.15    0.42    2.51   0.000   0.200   0.000    0.00
   1.590   22.41   -1.99    2.30   0.000   0.200   0.000    0.00
   1.600   22.20   -2.03    1.99   0.000   0.200   0.000    0.00
   1.610   22.08   -2.37    1.81   0.000   0.200   0.000    0.00
   1.620   21.85   -2.05    1.50   0.000   0.200   0.000    0.00
   1.630   21.32   -3.01    1.82   0.000   0.200   0.000    0.00
   1.640   21.54   -2.47    2.58   0.000   0.200   0.000    0.00
   1.650   22.02   -2.03    2.61   0.000   0.200   0.000    0.00
   1.660   22.23   -3.41    2.35   0.000   0.200   0.000    0.00
   1.670   22.50   -1.98    2.22   0.000   0.200   0.000    0.00
   1.680   22.43   -3.50    2.13   0.000   0.200   0.000    0.00
   1.690   22.66   -2.79    2.43   0.000   0.200   0.000    0.00
   1.700   23.08   -1.31    3.31   0.000   0.200   0.000    0.00
   1.710   22.99   -1.63    3.93   0.000   0.200   0.000    0.00
   1.720   22.74   -2.34    3.34   0.000   0.200   0.000    0.00
   1.730   22.75   -0.50    3.15   0.000   0.200   0.000    0.00
   1.740   23.10    0.54    3.31   0.000   0.200   0.000    0.00
   1.750   22.93    0.45    3.02   0.000   0.200   0.000    0.00
   1.760   22.90   -0.01    3.05   0.000   0.200   0.000    0.00
   1.770   22.45    0.23    3.47   0.000   0.200   0.000    0.00
   1.780   22.39    0.05    3.22   0.000   0.200   0.000    0.00
   1.790   22.25    0.74    2.74   0.000   0.200   0.000    0.00
   1.800   21.90    2.05    2.75   0.000   0.200   0.000    0.00
   1.810   22.22    1.26    2.86   0.000   0.200   0.000    0.00
   1.820   22.29    1.28    3.54   0.000   0.200   0.000    0.00
   1.830   22.38    0.60    3.10   0.000   0.200   0.000    0.00
   1.840   22.51    0.32    3.02   0.000   0.200   0.000    0.00
   1.850   22.65   -0.68    3.13   0.000   0.200   0.000    0.00
   1.860   22.44   -0.34    3.04   0.000   0.200   0.000    0.00
   1.870   22.16    0.73    3.39   0.000   0.200   0.000    0.00
   1.880   21.93    0.35    3.01   0.000   0.200   0.000    0.00
   1.890   21.72    0.55    2.81   0.000   0.200   0.000    0.00
   1.900   21.59    0.82    3.32   0.000   0.200   0.000    0.00
   1.910   21.51    0.14    3.54   0.000   0.200   0.000    0.00
   1.920   21.91   -0.41    3.23   0.000   0.200   0.000    0.00
   1.930   22.54   -0.07    3.15   0.000   0.200   0.000    0.00
   1.940   22.22    0.87    2.60   0.000   0.200   0.000    0.00
   1.950   22.22    1.50    2.63   0.000   0.200   0.000    0.00
   1.960   22.68    1.90    1.68   0.000   0.200   0.000    0.00
   1.970   22.61    2.46    2.23   0.000   0.200   0.000    0.00
   1.980   22.80    3.75    2.37   0.000   0.200   0.000    0.00
   1.990   22.40    4.71    2.46   0.000   0.200   0.000    0.00
   2.000   22.56    3.28    2.59   0.000   0.200   0.000    0.00
   2.010   22.94    3.95    2.17   0.000   0.200   0.000    0.00
   2.020   22.95    3.74    2.13   0.000   0.200   0.000    0.00
   2.030   22.82    3.08    2.26   0.000   0.200   0.000    0.00
   2.040   22.86    1.67    2.08   0.000   0.200   0.000    0.00
   2.050   23.50    2.19    1.72   0.000   0.200   0.000    0.00
   2.060   23.30    2.11    1.17   0.000   0.200   0.000    0.00
   2.070   23.19    0.81    1.02   0.000   0.200   0.000    0.00
   2.080   22.78    0.39    0.98   0.000   0.200   0.000    0.00
   2.090   22.62    0.64    1.11   0.000   0.200   0.000    0.00
   2.100   23.12    1.17    1.16   0.000   0.200   0.000    0.00
   2.110   23.08    1.70    1.79   0.000   0.200   0.000    0.00
   2.120   23.45    2.88    1.54   0.000   0.200   0.000    0.00
   2.130   24.18    2.38    1.48   0.000   0.200   0.000    0.00
   2.140   24.38    2.06    1.81   0.000   0.200   0.000    0.00
   2.150   24.41    2.72    1.54   0.000   0.200   0.000    0.00
   2.160   24.59    4.27    1.65   0.000   0.200   0.000    0.00
   2.170   24.39    5.94    1.63   0.000   0.200   0.000    0.00
   2.180   24.22    6.14    1.82   0.000   0.200   0.000    0.00
   2.190   24.11    5.00    1.58   0.000   0.200   0.000    0.00
   2.200   23.55    4.85    1.58   0.000   0.200   0.000    0.00
   2.210   23.27    4.09    1.71   0.000   0.200   0.000    0.00
   2.220   22.93    3.92    1.94   0.000   0.200   0.000    0.00
   2.230   22.99    5.08    1.58   0.000   0.200   0.000    0.00
   2.240   22.82    3.03    1.54   0.000   0.200   0.000    0.00
   2.250   22.64    2.65    1.54   0.000   0.200   0.000    0.00
   2.260   23.00    1.99    1.87   0.000   0.200   0.000    0.00
   2.270   23.31    1.67    2.04   0.000   0.200   0.000    0.00
   2.280   23.00    2.64    1.69   0.000   0.200   0.000    0.00
   2.290   23.51    1.47    1.34   0.000   0.200   0.000    0.00
   2.300   23.68    1.33    1.33   0.000   0.200   0.000    0.00
   2.310   23.64    1.07    1.43   0.000   0.200   0.000    0.00
   2.320   23.44    0.73    1.51   0.000   0.200   0.000    0.00
   2.330   23.71    1.09    1.66   0.000   0.200   0.000    0.00
   2.340   23.47    0.96    1.26   0.000   0.200   0.000    0.00
   2.350   23.93    0.22    1.39   0.000   0.200   0.000    0.00
   2.360   23.75   -1.13    0.84   0.000   0.200   0.000    0.00
   2.370   23.79   -2.12    0.87   0.000   0.200   0.000    0.00
   2.380   23.57   -0.80    0.63   0.000   0.200   0.000    0.00
   2.390   23.02   -0.98    0.65   0.000   0.200   0.000    0.00
   2.400   23.25   -0.36    0.50   0.000   0.200   0.000    0.00
   2.410   23.14    0.39    0.88   0.000   0.200   0.000    0.00
   2.420   22.36   -0.23    1.30   0.000   0.200   0.000    0.00
   2.430   22.53   -0.36    0.99   0.000   0.200   0.000    0.00
   2.440   22.75   -1.01    1.19   0.000   0.200   0.000    0.00
   2.450   22.82   -1.54    1.80   0.000   0.200   0.000    0.00
   2.460   22.65   -2.87    1.55   0.000   0.200   0.000    0.00
   2.470   22.99   -2.76    1.20   0.000   0.200   0.000    0.00
   2.480   22.75   -1.85    1.55   0.000   0.200   0.000    0.00
   2.490   23.28   -1.00    0.96   0.000   0.200   0.000    0.00
   2.500   22.27   -0.42    0.60   0.000   0.200   0.000    0.00
   2.510   22.31   -1.14    0.61   0.000   0.200   0.000    0.00
   2.520   22.46   -1.19    0.21   0.000   0.200   0.000    0.00
   2.530   22.76   -0.02   -0.21   0.000   0.200   0.000    0.00
   2.540   22.54    0.99    0.19   0.000   0.200   0.000    0.00
   2.550   22.34    0.03    0.48   0.000   0.200   0.000    0.00
   2.560   23.11   -0.69    0.47   0.000   0.200   0.000    0.00
   2.570   23.44    0.34    0.75   0.000   0.200   0.000    0.00
   2.580   23.41   -1.06    1.29   0.000   0.200   0.000    0.00
   2.590   23.73   -1.06    0.93   0.000   0.200   0.000    0.00
   2.600   23.24   -0.16    0.87   0.000   0.200   0.000    0.00
   2.610   23.20    0.89    0.71   0.000   0.200   0.000    0.00
   2.620   23.28    0.97    0.26   0.000   0.200   0.000    0.00
   2.630   22.69    0.68    0.44   0.000   0.200   0.000    0.00
   2.640   22.75    2.17    0.39   0.000   0.200   0.000    0.00
   2.650   22.86    0.92    0.34   0.000   0.200   0.000    0.00
   2.660   22.47    2.19   -0.02   0.000   0.200   0.000    0.00
   2.670   22.92    1.15    0.35   0.000   0.200   0.000    0.00
   2.680   23.12    1.60    0.45   0.000   0.200   0.000    0.00
   2.690   23.23    1.20    1.04   0.000   0.200   0.000    0.00
   2.700   23.34    1.14    1.31   0.000   0.200   0.000    0.00
   2.710   23.18    0.56    0.89   0.000   0.200   0.000    0.00
   2.720   23.07    0.56    0.33   0.000   0.200   0.000    0.00
   2.730   23.86   -0.70   -0.12   0.000   0.200   0.000    0.00
   2.740   23.41   -1.55   -0.16   0.000   0.200   0.000    0.00
   2.750   23.41   -1.61   -0.16   0.000   0.200   0.000    0.00
   2.760   23.79   -2.05   -0.24   0.000   0.200   0.000    0.00
   2.770   23.66   -2.53   -0.05   0.000   0.200   0.000    0.00
   2.780   23.68   -2.23    0.21   0.000   0.200   0.000    0.00
   2.790   23.56   -1.64    0.70   0.000   0.200   0.000    0.00
   2.800   23.82   -1.34    0.44   0.000   0.200   0.000    0.00
   2.810   24.20   -2.27    0.40   0.000   0.200   0.000    0.00
   2.820   23.66   -1.02    0.60   0.000   0.200   0.000    0.00
   2.830   23.69    0.58    0.39   0.000   0.200   0.000    0.00
   2.840   23.68    0.11    0.41   0.000   0.200   0.000    0.00
   2.850   23.20    0.78    0.78   0.000   0.200   0.000    0.00
   2.860   23.10    0.55    0.71   0.000   0.200   0.000    0.00
   2.870   23.27    1.59   -0.12   0.000   0.200   0.000    0.00
   2.880   23.12    0.05   -0.03   0.000   0.200   0.000    0.00
   2.890   23.10   -0.35    0.37   0.000   0.200   0.000    0.00
   2.900   23.45   -0.36    0.39   0.000   0.200   0.000    0.00
   2.910   23.35    0.64   -0.11   0.000   0.200   0.000    0.00
   2.920   23.29    1.27   -0.54   0.000   0.200   0.000    0.00
   2.930   22.93    1.00   -0.44   0.000   0.200   0.000    0.00
   2.940   23.04    0.38   -0.35   0.000   0.200   0.000    0.00
   2.950   23.15   -0.98   -0.27   0.000   0.200   0.000    0.00
   2.960   23.28   -2.46   -0.27   0.000   0.200   0.000    0.00
   2.970   23.41   -2.59   -0.40   0.000   0.200   0.000    0.00
   2.980   23.99   -2.17   -0.03   0.000   0.200   0.000    0.00
   2.990   23.06   -1.26    0.71   0.000   0.200   0.000    0.00
   3.000   22.73   -1.33    0.67   0.000   0.200   0.000    0.00
   3.010   22.44   -2.30    0.39   0.000   0.200   0.000    0.00
   3.020   22.40   -2.00    0.75   0.000   0.200   0.000    0.00
   3.030   22.91   -1.78    0.62   0.000   0.200   0.000    0.00
   3.040   22.54   -1.38    0.24   0.000   0.200   0.000    0.00
   3.050   22.44   -0.67    0.41   0.000   0.200   0.000    0.00
   3.060   22.37   -0.71    0.14   0.000   0.200   0.000    0.00
   3.070   22.33   -1.37   -0.29   0.000   0.200   0.000    0.00
   3.080   22.72   -1.88    0.10   0.000   0.200   0.000    0.00
   3.090   22.80   -1.42   -0.68   0.000   0.200   0.000    0.00
   3.100   22.70   -1.58   -0.49   0.000   0.200   0.000    0.00
   3.110   22.87   -2.93   -0.65   0.000   0.200   0.000    0.00
   3.120   22.31   -4.31   -0.24   0.000   0.200   0.000    0.00
   3.130   22.11   -5.23   -0.68   0.000   0.200   0.000    0.00
   3.140   21.80   -4.68   -1.16   0.000   0.200   0.000    0.00
   3.150   22.02   -3.17   -1.29   0.000   0.200   0.000    0.00
   3.160   21.48   -2.60   -0.79   0.000   0.200   0.000    0.00
   3.170   21.38   -1.50    0.07   0.000   0.200   0.000    0.00
   3.180   21.43   -1.13    0.85   0.000   0.200   0.000    0.00
   3.190   21.12   -1.09    1.42   0.000   0.200   0.000    0.00
   3.200   21.29   -0.63    0.85   0.000   0.200   0.000    0.00
   3.210   21.28   -2.47    1.13   0.000   0.200   0.000    0.00
   3.220   21.74   -4.00    1.70   0.000   0.200   0.000    0.00
   3.230   21.01   -4.26    2.03   0.000   0.200   0.000    0.00
   3.240   20.65   -2.65    2.43   0.000   0.200   0.000    0.00
   3.250   20.41   -2.47    1.60   0.000   0.200   0.000    0.00
   3.260   20.13   -1.85    0.91   0.000   0.200   0.000    0.00
   3.270   19.83    0.14    0.76   0.000   0.200   0.000    0.00
   3.280   19.97   -0.50    0.33   0.000   0.200   0.000    0.00
   3.290   20.25   -0.23   -0.08   0.000   0.200   0.000    0.00
   3.300   20.78    1.32    0.74   0.000   0.200   0.000    0.00
   3.310   20.81    0.93    0.61   0.000   0.200   0.000    0.00
   3.320   20.81    0.98    0.83   0.000   0.200   0.000    0.00
   3.330   21.17    2.00    0.78   0.000   0.200   0.000    0.00
   3.340   20.36    2.28    0.65   0.000   0.200   0.000    0.00
   3.350   20.75    0.79    0.05   0.000   0.200   0.000    0.00
   3.360   21.06    0.38    0.24   0.000   0.200   0.000    0.00
   3.370   20.96    0.47    0.53   0.000   0.200   0.000    0.00
   3.380   20.99   -0.90    0.56   0.000   0.200   0.000    0.00
   3.390   20.67    0.08    0.05   0.000   0.200   0.000    0.00
   3.400   21.00    2.00   -0.40   0.000   0.200   0.000    0.00
   3.410   21.66    1.98   -0.72   0.000   0.200   0.000    0.00
   3.420   21.40    2.58   -0.88   0.000   0.200   0.000    0.00
   3.430   21.04    1.88   -1.04   0.000   0.200   0.000    0.00
   3.440   21.07    1.10   -1.41   0.000   0.200   0.000    0.00
   3.450   21.63    2.10   -1.54   0.000   0.200   0.000    0.00
   3.460   21.73    1.77   -1.02   0.000   0.200   0.000    0.00
   3.470   21.47    1.71   -1.50   0.000   0.200   0.000    0.00
   3.480   21.01    2.12   -1.21   0.000   0.200   0.000    0.00
   3.490   20.86    2.18   -1.32   0.000   0.200   0.000    0.00
   3.500   21.12    3.20   -1.94   0.000   0.200   0.000    0.00
   3.510   21.47    3.82   -2.24   0.000   0.200   0.000    0.00
   3.520   21.24    2.99   -1.64   0.000   0.200   0.000    0.00
   3.530   21.02    4.32   -1.45   0.000   0.200   0.000    0.00
   3.540   20.73    3.73   -1.66   0.000   0.200   0.000    0.00
   3.550   20.83    1.71   -1.42   0.000   0.200   0.000    0.00
   3.560   20.61    0.99   -1.03   0.000   0.200   0.000    0.00
   3.570   20.70   -0.11   -0.51   0.000   0.200   0.000    0.00
   3.580   20.75   -1.00   -0.79   0.000   0.200   0.000    0.00
   3.590   21.32   -0.10   -1.33   0.000   0.200   0.000    0.00
   3.600   21.55    1.23   -1.10   0.000   0.200   0.000    0.00
   3.610   21.58    1.08   -0.96   0.000   0.200   0.000    0.00
   3.620   22.34    1.35   -0.96   0.000   0.200   0.000    0.00
   3.630   22.20   -0.19   -1.14   0.000   0.200   0.000    0.00
   3.640   22.68   -1.00   -1.34   0.000   0.200   0.000    0.00
   3.650   22.78    0.52   -0.96   0.000   0.200   0.000    0.00
   3.660   22.42    0.49   -0.94   0.000   0.200   0.000    0.00
   3.670   21.52   -1.52   -0.44   0.000   0.200   0.000    0.00
   3.680   21.82   -0.84   -0.40   0.000   0.200   0.000    0.00
   3.690   21.42   -1.04   -0.77   0.000   0.200   0.000    0.00
   3.700   21.66    1.35   -0.67   0.000   0.200   0.000    0.00
   3.710   21.24    1.41   -0.81   0.000   0.200   0.000    0.00
   3.720   21.33    2.07   -0.58   0.000   0.200   0.000    0.00
   3.730   20.95    2.27   -0.45   0.000   0.200   0.000    0.00
   3.740   20.80    3.30   -0.77   0.000   0.200   0.000    0.00
   3.750   21.00    2.65   -1.13   0.000   0.200   0.000    0.00
   3.760   20.73    1.60   -1.01   0.000   0.200   0.000    0.00
   3.770   21.42    2.35   -1.17   0.000   0.200   0.000    0.00
   3.780   22.17    4.73   -1.04   0.000   0.200   0.000    0.00
   3.790   21.70    3.40   -0.93   0.000   0.200   0.000    0.00
   3.800   21.79    3.70   -0.60   0.000   0.200   0.000    0.00
   3.810   21.51    2.37    0.14   0.000   0.200   0.000    0.00
   3.820   21.31    3.23    0.79   0.000   0.200   0.000    0.00
   3.830   21.91    4.78    0.68   0.000   0.200   0.000    0.00
   3.840   22.59    5.44    0.75   0.000   0.200   0.000    0.00
   3.850   22.12    3.59    0.70   0.000   0.200   0.000    0.00
   3.860   21.87    3.74    0.58   0.000   0.200   0.000    0.00
   3.870   22.08    2.46    0.93   0.000   0.200   0.000    0.00
   3.880   21.96    2.09    1.55   0.000   0.200   0.000    0.00
   3.890   22.32    0.68    1.81   0.000   0.200   0.000    0.00
   3.900   22.25   -0.05    1.91   0.000   0.200   0.000    0.00
   3.910   21.82    0.24    1.92   0.000   0.200   0.000    0.00
   3.920   21.83    0.93    1.91   0.000   0.200   0.000    0.00
   3.930   21.50    0.70    1.70   0.000   0.200   0.000    0.00
   3.940   21.82   -1.45    2.06   0.000   0.200   0.000    0.00
   3.950   21.77   -0.92    2.18   0.000   0.200   0.000    0.00
   3.960   21.21   -0.43    1.75   0.000   0.200   0.000    0.00
   3.970   21.15    0.06    2.20   0.000   0.200   0.000    0.00
   3.980   20.53   -0.02    2.24   0.000   0.200   0.000    0.00
   3.990   20.34   -0.18    1.42   0.000   0.200   0.000    0.00
   4.000   20.18   -1.40    0.79   0.000   0.200   0.000    0.00
   4.010   20.65    0.06    1.35   0.000   0.200   0.000    0.00
   4.020   20.91    0.09    2.21   0.000   0.200   0.000    0.00
   4.030   20.85    1.27    1.65   0.000   0.200   0.000    0.00
   4.040   20.30    2.46    1.68   0.000   0.200   0.000    0.00
   4.050   20.36    2.81    1.97   0.000   0.200   0.000    0.00
   4.060   20.55    1.77    2.15   0.000   0.200   0.000    0.00
   4.070   20.79    0.33    1.61   0.000   0.200   0.000    0.00
   4.080   20.90   -1.38    1.35   0.000   0.200   0.000    0.00
   4.090   20.33   -2.32    0.98   0.000   0.200   0.000    0.00
   4.100   20.18   -1.58    0.75   0.000   0.200   0.000    0.00
   4.110   20.11   -0.96    1.07   0.000   0.200   0.000    0.00
   4.120   20.28   -0.56    1.42   0.000   0.200   0.000    0.00
   4.130   20.72   -1.33    1.42   0.000   0.200   0.000    0.00
   4.140   20.63   -1.75    1.47   0.000   0.200   0.000    0.00
   4.150   20.78   -1.93    1.12   0.000   0.200   0.000    0.00
   4.160   20.23   -3.09    1.54   0.000   0.200   0.000    0.00
   4.170   20.31   -1.93    1.31   0.000   0.200   0.000    0.00
   4.180   20.55   -0.92    1.47   0.000   0.200   0.000    0.00
   4.190   20.03   -0.52    1.65   0.000   0.200   0.000    0.00
   4.200   19.87   -0.61    1.68   0.000   0.200   0.000    0.00
   4.210   20.23   -1.03    1.36   0.000   0.200   0.000    0.00
   4.220   20.68   -3.59    0.56   0.000   0.200   0.000    0.00
   4.230   20.98   -2.68    1.24   0.000   0.200   0.000    0.00
   4.240   20.97   -2.63    1.12   0.000   0.200   0.000    0.00
   4.250   20.79   -1.58    1.16   0.000   0.200   0.000    0.00
   4.260   20.80   -1.82    1.48   0.000   0.200   0.000    0.00
   4.270   20.81   -0.00    1.92   0.000   0.200   0.000    0.00
   4.280   20.49    0.14    2.04   0.000   0.200   0.000    0.00
   4.290   20.34   -0.47    1.97   0.000   0.200   0.000    0.00
   4.300   20.42   -1.15    1.94   0.000   0.200   0.000    0.00
   4.310   20.26   -0.72    1.60   0.000   0.200   0.000    0.00
   4.320   19.81   -1.00    1.29   0.000   0.200   0.000    0.00
   4.330   20.41    0.73    0.44   0.000   0.200   0.000    0.00
   4.340   20.92   -0.62    0.59   0.000   0.200   0.000    0.00
   4.350   20.91   -1.10    1.05   0.000   0.200   0.000    0.00
   4.360   21.04   -0.49    0.91   0.000   0.200   0.000    0.00
   4.370   21.16    0.17    1.58   0.000   0.200   0.000    0.00
   4.380   21.37    0.72    2.16   0.000   0.200   0.000    0.00
   4.390   21.72    1.86    2.32   0.000   0.200   0.000    0.00
   4.400   21.28    2.20    1.48   0.000   0.200   0.000    0.00
   4.410   21.04    2.44    1.51   0.000   0.200   0.000    0.00
   4.420   20.84    2.52    1.71   0.000   0.200   0.000    0.00
   4.430   20.49    0.42    1.57   0.000   0.200   0.000    0.00
   4.440   20.63    1.63    1.66   0.000   0.200   0.000    0.00
   4.450   20.84    1.49    1.90   0.000   0.200   0.000    0.00
   4.460   21.40    0.05    2.12   0.000   0.200   0.000    0.00
   4.470   20.87   -1.49    2.20   0.000   0.200   0.000    0.00
   4.480   20.78   -0.00    1.45   0.000   0.200   0.000    0.00
   4.490   21.41    1.57    1.55   0.000   0.200   0.000    0.00
   4.500   21.56    2.23    1.97   0.000   0.200   0.000    0.00
   4.510   21.61    1.72    1.91   0.000   0.200   0.000    0.00
   4.520   21.35    2.41    1.33   0.000   0.200   0.000    0.00
   4.530   21.32    3.25    1.22   0.000   0.200   0.000    0.00
   4.540   21.56    3.13    1.85   0.000   0.200   0.000    0.00