! This hub-height wind-speed file was generated by TurbSim (from OpenFAST--128-NOTFOUND) on 23-Aug-2023 at 09:41:11.
!
! The requested statistics for this data were:
!    Mean Total Wind Speed =   20.000 m/s
!    Turbulence Intensity  =   14.420%
!
!   Time  HorSpd  WndDir  VerSpd  HorShr  VerShr  LnVShr  GstSpd
!  (sec)   (m/s)   (deg)   (m/s)     (-)     (-)     (-)   (m/s)
   0.000   18.86   -4.73   -1.06   0.000   0.200   0.000    0.00
   0.010   19.32   -4.79   -1.21   0.000   0.200   0.000    0.00
   0.020   18.88   -5.72   -1.16   0.000   0.200   0.000    0.00
   0.030   19.06   -7.40   -0.86   0.000   0.200   0.000    0.00
   0.040   19.05   -7.41   -0.99   0.000   0.200   0.000    0.00
   0.050   19.05   -6.74   -0.82   0.000   0.200   0.000    0.00
   0.060   19.16   -6.46   -0.63   0.000   0.200   0.000    0.00
   0.070   19.11   -4.98   -1.28   0.000   0.200   0.000    0.00
   0.080   19.06   -5.75   -1.58   0.000   0.200   0.000    0.00
   0.090   19.39   -6.13   -0.99   0.000   0.200   0.000    0.00
   0.100   19.63   -7.06   -0.80   0.000   0.200   0.000    0.00
   0.110   19.12   -5.47   -0.43   0.000   0.200   0.000    0.00
   0.120   18.89   -6.43   -1.09   0.000   0.200   0.000    0.00
   0.130   18.22   -7.21   -0.96   0.000   0.200   0.000    0.00
   0.140   18.47   -8.00   -1.03   0.000   0.200   0.000    0.00
   0.150   18.92   -6.82   -1.22   0.000   0.200   0.000    0.00
   0.160   19.39   -8.17   -0.65   0.000   0.200   0.000    0.00
   0.170   19.51   -7.08   -1.24   0.000   0.200   0.000    0.00
   0.180   19.29   -7.33   -0.79   0.000   0.200   0.000    0.00
   0.190   19.37   -8.53   -0.47   0.000   0.200   0.000    0.00
   0.200   18.90   -9.47    0.30   0.000   0.200   0.000    0.00
   0.210   19.41   -9.65    0.10   0.000   0.200   0.000    0.00
   0.220   19.26   -9.38    0.66   0.000   0.200   0.000    0.00
   0.230   19.01   -8.88    1.09   0.000   0.200   0.000    0.00
   0.240   18.84   -9.42    0.24   0.000   0.200   0.000    0.00
   0.250   19.25   -8.19   -0.79   0.000   0.200   0.000    0.00
   0.260   19.28   -8.35   -1.00   0.000   0.200   0.000    0.00
   0.270   19.15   -7.94   -0.72   0.000   0.200   0.000    0.00
   0.280   18.77   -5.55   -1.32   0.000   0.200   0.000    0.00
   0.290   18.50   -4.95   -0.74   0.000   0.200   0.000    0.00
   0.300   19.31   -5.47   -0.53   0.000   0.200   0.000    0.00
   0.310   19.02   -5.85   -0.43   0.000   0.200   0.000    0.00
   0.320   18.39   -3.82   -0.40   0.000   0.200   0.000    0.00
   0.330   17.64   -5.22   -0.36   0.000   0.200   0.000    0.00
   0.340   17.45   -7.24   -0.10   0.000   0.200   0.000    0.00
   0.350   17.03   -7.67   -0.16   0.000   0.200   0.000    0.00
   0.360   17.06   -7.83   -0.50   0.000   0.200   0.000    0.00
   0.370   17.59   -9.36   -0.52   0.000   0.200   0.000    0.00
   0.380   17.57   -9.37   -1.20   0.000   0.200   0.000    0.00
   0.390   17.75   -9.51   -1.35   0.000   0.200   0.000    0.00
   0.400   17.88   -8.61   -0.59   0.000   0.200   0.000    0.00
   0.410   17.82  -10.29   -1.15   0.000   0.200   0.000    0.00
   0.420   17.78   -9.22   -1.49   0.000   0.200   0.000    0.00
   0.430   17.56  -10.29   -1.51   0.000   0.200   0.000    0.00
   0.440   17.72  -11.59   -1.79   0.000   0.200   0.000    0.00
   0.450   17.65  -11.29   -2.44   0.000   0.200   0.000    0.00
   0.460   17.72  -11.77   -2.69   0.000   0.200   0.000    0.00
   0.470   17.83  -11.75   -2.49   0.000   0.200   0.000    0.00
   0.480   17.72  -12.21   -2.30   0.000   0.200   0.000    0.00
   0.490   17.97  -12.69   -2.20   0.000   0.200   0.000    0.00
   0.500   17.85  -10.98   -2.54   0.000   0.200   0.000    0.00
   0.510   18.12  -10.15   -2.93   0.000   0.200   0.000    0.00
   0.520   17.98   -9.96   -2.72   0.000   0.200   0.000    0.00
   0.530   17.69  -10.78   -1.82   0.000   0.200   0.000    0.00
   0.540   17.51   -9.61   -1.86   0.000   0.200   0.000    0.00
   0.550   17.51  -10.13   -1.94   0.000   0.200   0.000    0.00
   0.560   17.60  -10.53   -2.26   0.000   0.200   0.000    0.00
   0.570   17.51  -11.12   -2.24   0.000   0.200   0.000    0.00
   0.580   16.89  -11.22   -2.42   0.000   0.200   0.000    0.00
   0.590   16.69  -10.26   -2.77   0.000   0.200   0.000    0.00
   0.600   16.35   -9.64   -2.69   0.000   0.200   0.000    0.00
   0.610   16.81  -10.46   -2.10   0.000   0.200   0.000    0.00
   0.620   17.25   -9.02   -2.43   0.000   0.200   0.000    0.00
   0.630   17.09   -9.88   -2.82   0.000   0.200   0.000    0.00
   0.640   17.15  -11.23   -2.61   0.000   0.200   0.000    0.00
   0.650   17.00  -11.31   -1.99   0.000   0.200   0.000    0.00
   0.660   17.30   -9.13   -2.57   0.000   0.200   0.000    0.00
   0.670   18.11   -9.02   -2.93   0.000   0.200   0.000    0.00
   0.680   17.90   -9.23   -3.00   0.000   0.200   0.000    0.00
   0.690   18.04   -9.18   -3.24   0.000   0.200   0.000    0.00
   0.700   18.15  -11.04   -3.18   0.000   0.200   0.000    0.00
   0.710   18.13  -11.96   -2.64   0.000   0.200   0.000    0.00
   0.720   17.82  -10.38   -2.39   0.000   0.200   0.000    0.00
   0.730   17.99   -9.37   -2.38   0.000   0.200   0.000    0.00
   0.740   17.17  -10.31   -2.31   0.000   0.200   0.000    0.00
   0.750   16.73  -10.60   -1.56   0.000   0.200   0.000    0.00
   0.760   16.55  -10.93   -1.18   0.000   0.200   0.000    0.00
   0.770   16.70   -9.50   -1.55   0.000   0.200   0.000    0.00
   0.780   17.12   -9.03   -1.67   0.000   0.200   0.000    0.00
   0.790   16.82  -10.87   -1.70   0.000   0.200   0.000    0.00
   0.800   16.09  -10.42   -2.01   0.000   0.200   0.000    0.00
   0.810   16.96  -13.44   -1.80   0.000   0.200   0.000    0.00
   0.820   16.80  -10.70   -1.63   0.000   0.200   0.000    0.00
   0.830   16.51  -10.47   -2.18   0.000   0.200   0.000    0.00
   0.840   16.71   -9.94   -2.47   0.000   0.200   0.000    0.00
   0.850   16.78   -7.80   -2.37   0.000   0.200   0.000    0.00
   0.860   16.55   -6.76   -1.85   0.000   0.200   0.000    0.00
   0.870   17.24   -6.20   -2.09   0.000   0.200   0.000    0.00
   0.880   17.18   -5.30   -2.75   0.000   0.200   0.000    0.00
   0.890   16.72   -7.60   -2.42   0.000   0.200   0.000    0.00
   0.900   16.22   -6.70   -1.98   0.000   0.200   0.000    0.00
   0.910   16.50   -7.06   -2.16   0.000   0.200   0.000    0.00
   0.920   16.79   -8.64   -1.92   0.000   0.200   0.000    0.00
   0.930   17.39   -9.22   -1.84   0.000   0.200   0.000    0.00
   0.940   17.00   -7.98   -1.83   0.000   0.200   0.000    0.00
   0.950   16.78   -8.26   -1.81   0.000   0.200   0.000    0.00
   0.960   16.99   -9.66   -1.08   0.000   0.200   0.000    0.00
   0.970   17.23  -10.01   -1.11   0.000   0.200   0.000    0.00
   0.980   16.80  -10.58   -0.79   0.000   0.200   0.000    0.00
   0.990   16.85  -10.53   -0.52   0.000   0.200   0.000    0.00
   1.000   16.82   -7.59   -0.91   0.000   0.200   0.000    0.00
   1.010   17.59   -6.24   -0.32   0.000   0.200   0.000    0.00
   1.020   17.25   -3.40   -0.00   0.000   0.200   0.000    0.00
   1.030   16.94   -2.97    0.51   0.000   0.200   0.000    0.00
   1.040   16.88   -2.17    0.06   0.000   0.200   0.000    0.00
   1.050   17.04   -1.24   -0.28   0.000   0.200   0.000    0.00
   1.060   16.89   -2.28   -0.32   0.000   0.200   0.000    0.00
   1.070   17.41   -2.84    0.17   0.000   0.200   0.000    0.00
   1.080   17.35   -2.52    0.61   0.000   0.200   0.000    0.00
   1.090   16.89   -1.97    0.83   0.000   0.200   0.000    0.00
   1.100   17.06   -2.70    0.54   0.000   0.200   0.000    0.00
   1.110   17.29   -3.28    0.61   0.000   0.200   0.000    0.00
   1.120   17.31   -3.73    0.21   0.000   0.200   0.000    0.00
   1.130   16.82   -4.15    0.52   0.000   0.200   0.000    0.00
   1.140   16.76   -5.91    0.49   0.000   0.200   0.000    0.00
   1.150   17.09   -4.66    0.31   0.000   0.200   0.000    0.00
   1.160   17.30   -5.92    0.45   0.000   0.200   0.000    0.00
   1.170   16.70   -6.66    0.47   0.000   0.200   0.000    0.00
   1.180   16.41   -7.51    0.27   0.000   0.200   0.000    0.00
   1.190   16.00   -5.62   -0.05   0.000   0.200   0.000    0.00
   1.200   16.45   -4.47   -0.22   0.000   0.200   0.000    0.00
   1.210   16.64   -5.70   -0.04   0.000   0.200   0.000    0.00
   1.220   16.62   -5.65   -0.09   0.000   0.200   0.000    0.00
   1.230   16.24   -7.07   -0.34   0.000   0.200   0.000    0.00
   1.240   15.97   -8.78   -0.12   0.000   0.200   0.000    0.00
   1.250   15.87   -8.94   -0.06   0.000   0.200   0.000    0.00
   1.260   15.93   -8.70   -0.52   0.000   0.200   0.000    0.00
   1.270   16.42   -9.02   -0.26   0.000   0.200   0.000    0.00
   1.280   16.27   -9.35   -0.54   0.000   0.200   0.000    0.00
   1.290   15.97   -9.11   -0.43   0.000   0.200   0.000    0.00
   1.300   16.04   -9.54    0.18   0.000   0.200   0.000    0.00
   1.310   15.58   -7.87    0.41   0.000   0.200   0.000    0.00
   1.320   15.58   -9.26    0.40   0.000   0.200   0.000    0.00
   1.330   15.50   -9.56    0.91   0.000   0.200   0.000    0.00
   1.340   15.65  -10.10    0.92   0.000   0.200   0.000    0.00
   1.350   15.46   -9.98    0.59   0.000   0.200   0.000    0.00
   1.360   15.62  -10.91    0.51   0.000   0.200   0.000    0.00
   1.370   15.14  -10.33    0.45   0.000   0.200   0.000    0.00
   1.380   15.57  -11.93    0.18   0.000   0.200   0.000    0.00
   1.390   16.18  -10.67   -0.32   0.000   0.200   0.000    0.00
   1.400   16.30  -10.15   -0.34   0.000   0.200   0.000    0.00
   1.410   15.93  -11.87    0.60   0.000   0.200   0.000    0.00
   1.420   15.70  -11.85    0.66   0.000   0.200   0.000    0.00
   1.430   15.70  -10.89    0.61   0.000   0.200   0.000    0.00
   1.440   15.56  -11.35    0.53   0.000   0.200   0.000    0.00
   1.450   15.99   -8.60    0.75   0.000   0.200   0.000    0.00
   1.460   16.58   -7.44    0.38   0.000   0.200   0.000    0.00
   1.470   16.15   -8.23    0.89   0.000   0.200   0.000    0.00
   1.480   16.51   -7.15    0.55   0.000   0.200   0.000    0.00
   1.490   16.50   -6.19    0.13   0.000   0.200   0.000    0.00
   1.500   15.94   -5.17   -0.47   0.000   0.200   0.000    0.00
   1.510   16.31   -3.75   -0.59   0.000   0.200   0.000    0.00
   1.520   16.43   -4.31   -0.10   0.000   0.200   0.000    0.00
   1.530   16.41   -3.22   -0.33   0.000   0.200   0.000    0.00
   1.540   16.57   -5.18   -0.63   0.000   0.200   0.000    0.00
   1.550   16.70   -6.09   -0.28   0.000   0.200   0.000    0.00
   1.560   16.96   -5.60   -0.18   0.000   0.200   0.000    0.00
   1.570   16.47   -6.68    0.43   0.000   0.200   0.000    0.00
   1.580   16.50   -5.61    0.41   0.000   0.200   0.000    0.00
   1.590   16.49   -4.70    0.58   0.000   0.200   0.000    0.00
   1.600   16.89   -5.31    0.19   0.000   0.200   0.000    0.00
   1.610   16.67   -5.61    0.11   0.000   0.200   0.000    0.00
   1.620   16.70   -4.86    0.00   0.000   0.200   0.000    0.00
   1.630   16.33   -6.98    0.46   0.000   0.200   0.000    0.00
   1.640   16.85   -4.87    0.91   0.000   0.200   0.000    0.00
   1.650   17.03   -4.49    0.59   0.000   0.200   0.000    0.00
   1.660   17.04   -4.34    0.93   0.000   0.200   0.000    0.00
   1.670   17.01   -5.67    1.01   0.000   0.200   0.000    0.00
   1.680   17.37   -3.70    0.68   0.000   0.200   0.000    0.00
   1.690   17.31   -3.82    0.59   0.000   0.200   0.000    0.00
   1.700   17.16   -3.45    0.41   0.000   0.200   0.000    0.00
   1.710   17.27   -3.85    0.24   0.000   0.200   0.000    0.00
   1.720   17.63   -4.89   -0.13   0.000   0.200   0.000    0.00
   1.730   17.82   -4.45    0.41   0.000   0.200   0.000    0.00
   1.740   17.87   -4.52    0.04   0.000   0.200   0.000    0.00
   1.750   17.38   -4.28    0.07   0.000   0.200   0.000    0.00
   1.760   17.50   -6.07   -0.01   0.000   0.200   0.000    0.00
   1.770   17.55   -6.71   -0.11   0.000   0.200   0.000    0.00
   1.780   16.57   -5.97   -0.60   0.000   0.200   0.000    0.00
   1.790   16.12   -4.28   -0.91   0.000   0.200   0.000    0.00
   1.800   16.06   -3.02   -1.20   0.000   0.200   0.000    0.00
   1.810   16.03   -3.72   -1.32   0.000   0.200   0.000    0.00
   1.820   16.25   -3.50   -1.70   0.000   0.200   0.000    0.00
   1.830   15.89   -1.44   -1.53   0.000   0.200   0.000    0.00
   1.840   15.29   -1.46   -1.71   0.000   0.200   0.000    0.00
   1.850   15.29   -2.30   -2.78   0.000   0.200   0.000    0.00
   1.860   15.13   -1.91   -2.56   0.000   0.200   0.000    0.00
   1.870   15.49   -0.47   -2.17   0.000   0.200   0.000    0.00
   1.880   15.93    0.26   -1.95   0.000   0.200   0.000    0.00
   1.890   15.43   -0.35   -1.46   0.000   0.200   0.000    0.00
   1.900   14.86    2.17   -0.66   0.000   0.200   0.000    0.00
   1.910   15.32    1.67   -0.45   0.000   0.200   0.000    0.00
   1.920   15.25    2.91   -0.17   0.000   0.200   0.000    0.00
   1.930   14.57    4.83   -0.43   0.000   0.200   0.000    0.00
   1.940   14.74    6.47   -0.47   0.000   0.200   0.000    0.00
   1.950   14.32    4.62   -1.04   0.000   0.200   0.000    0.00
   1.960   14.00    3.83   -1.19   0.000   0.200   0.000    0.00
   1.970   14.41    3.83   -1.05   0.000   0.200   0.000    0.00
   1.980   14.56    4.50   -0.39   0.000   0.200   0.000    0.00
   1.990   14.37    6.23   -0.12   0.000   0.200   0.000    0.00
   2.000   14.43    6.33   -0.30   0.000   0.200   0.000    0.00
   2.010   14.09    4.74   -0.70   0.000   0.200   0.000    0.00
   2.020   14.17    4.41   -0.60   0.000   0.200   0.000    0.00
   2.030   14.01    4.53   -0.02   0.000   0.200   0.000    0.00
   2.040   14.33    1.48    0.42   0.000   0.200   0.000    0.00
   2.050   14.59    2.11    0.18   0.000   0.200   0.000    0.00
   2.060   14.34    4.37   -0.45   0.000   0.200   0.000    0.00
   2.070   14.38    3.45   -0.99   0.000   0.200   0.000    0.00
   2.080   14.89    2.00   -0.81   0.000   0.200   0.000    0.00
   2.090   14.86    1.63   -0.43   0.000   0.200   0.000    0.00
   2.100   14.95    2.51   -0.49   0.000   0.200   0.000    0.00
   2.110   14.70   -0.26   -0.38   0.000   0.200   0.000    0.00
   2.120   14.91   -2.00   -0.35   0.000   0.200   0.000    0.00
   2.130   14.98   -2.76   -0.48   0.000   0.200   0.000    0.00
   2.140   14.76   -3.50   -0.52   0.000   0.200   0.000    0.00
   2.150   14.84   -2.99   -0.08   0.000   0.200   0.000    0.00
   2.160   15.10   -4.53   -0.57   0.000   0.200   0.000    0.00
   2.170   15.04   -4.94   -0.89   0.000   0.200   0.000    0.00
   2.180   15.17   -5.50   -0.95   0.000   0.200   0.000    0.00
   2.190   15.33   -6.72   -0.34   0.000   0.200   0.000    0.00
   2.200   15.60   -6.49   -0.22   0.000   0.200   0.000    0.00
   2.210   15.77   -6.17   -0.16   0.000   0.200   0.000    0.00
   2.220   16.22   -6.25   -0.74   0.000   0.200   0.000    0.00
   2.230   16.46   -5.55   -0.54   0.000   0.200   0.000    0.00
   2.240   16.53   -7.81   -0.66   0.000   0.200   0.000    0.00
   2.250   16.02   -6.47   -1.19   0.000   0.200   0.000    0.00
   2.260   15.63   -7.32   -1.31   0.000   0.200   0.000    0.00
   2.270   15.63  -10.02   -1.93   0.000   0.200   0.000    0.00
   2.280   15.32  -10.30   -1.68   0.000   0.200   0.000    0.00
   2.290   15.04  -10.33   -1.61   0.000   0.200   0.000    0.00
   2.300   15.07   -9.92   -1.82   0.000   0.200   0.000    0.00
   2.310   15.53   -7.99   -1.26   0.000   0.200   0.000    0.00
   2.320   15.23   -8.35   -1.36   0.000   0.200   0.000    0.00
   2.330   15.23   -9.75   -1.55   0.000   0.200   0.000    0.00
   2.340   15.41   -9.93   -1.46   0.000   0.200   0.000    0.00
   2.350   15.60   -7.84   -1.62   0.000   0.200   0.000    0.00
   2.360   15.85   -6.77   -1.85   0.000   0.200   0.000    0.00
   2.370   15.55   -7.65   -1.70   0.000   0.200   0.000    0.00
   2.380   15.54   -6.96   -0.67   0.000   0.200   0.000    0.00
   2.390   15.76   -7.04   -0.92   0.000   0.200   0.000    0.00
   2.400   15.88   -8.02   -0.95   0.000   0.200   0.000    0.00
   2.410   15.91   -8.14   -1.22   0.000   0.200   0.000    0.00
   2.420   15.65   -9.57   -1.68   0.000   0.200   0.000    0.00
   2.430   15.60   -9.43   -2.20   0.000   0.200   0.000    0.00
   2.440   15.90   -7.85   -2.22   0.000   0.200   0.000    0.00
   2.450   15.69   -8.74   -1.84   0.000   0.200   0.000    0.00
   2.460   15.97  -10.19   -2.01   0.000   0.200   0.000    0.00
   2.470   15.90   -9.70   -1.40   0.000   0.200   0.000    0.00
   2.480   16.37  -10.22   -1.94   0.000   0.200   0.000    0.00
   2.490   16.08  -10.58   -2.28   0.000   0.200   0.000    0.00
   2.500   16.15   -9.08   -1.98   0.000   0.200   0.000    0.00
   2.510   16.33   -8.81   -2.14   0.000   0.200   0.000    0.00
   2.520   16.31   -8.62   -1.71   0.000   0.200   0.000    0.00
   2.530   16.39   -9.03   -2.28   0.000   0.200   0.000    0.00
   2.540   16.34   -9.34   -2.11   0.000   0.200   0.000    0.00
   2.550   17.11   -5.88   -2.19   0.000   0.200   0.000    0.00
   2.560   17.53   -4.62   -2.17   0.000   0.200   0.000    0.00
   2.570   17.68   -5.92   -2.32   0.000   0.200   0.000    0.00
   2.580   17.65   -5.75   -2.74   0.000   0.200   0.000    0.00
   2.590   17.59   -3.94   -2.65   0.000   0.200   0.000    0.00
   2.600   17.85   -4.56   -2.80   0.000   0.200   0.000    0.00
   2.610   17.76   -5.50   -2.55   0.000   0.200   0.000    0.00
   2.620   17.64   -5.56   -1.66   0.000   0.200   0.000    0.00
   2.630   17.82   -5.24   -1.14   0.000   0.200   0.000    0.00
   2.640   17.60   -4.53   -1.16   0.000   0.200   0.000    0.00
   2.650   17.36   -3.56   -1.28   0.000   0.200   0.000    0.00
   2.660   18.18   -3.10   -0.91   0.000   0.200   0.000    0.00
   2.670   18.18   -2.26   -0.85   0.000   0.200   0.000    0.00
   2.680   17.86   -0.07   -0.88   0.000   0.200   0.000    0.00
   2.690   18.39   -1.76   -0.70   0.000   0.200   0.000    0.00
   2.700   18.33   -3.58   -0.81   0.000   0.200   0.000    0.00
   2.710   18.37   -1.03   -0.55   0.000   0.200   0.000    0.00
   2.720   18.76   -0.86   -1.11   0.000   0.200   0.000    0.00
   2.730   18.77   -4.26   -0.78   0.000   0.200   0.000    0.00
   2.740   19.40   -1.78   -1.00   0.000   0.200   0.000    0.00
   2.750   19.09   -1.39   -1.39   0.000   0.200   0.000    0.00
   2.760   19.21   -2.32   -1.68   0.000   0.200   0.000    0.00
   2.770   19.56   -4.99   -1.65   0.000   0.200   0.000    0.00
   2.780   19.47   -3.66   -1.95   0.000   0.200   0.000    0.00
   2.790   19.20   -4.72   -2.44   0.000   0.200   0.000    0.00
   2.800   19.49   -5.13   -2.62   0.000   0.200   0.000    0.00
   2.810   19.33   -5.15   -2.38   0.000   0.200   0.000    0.00
   2.820   18.96   -5.96   -2.70   0.000   0.200   0.000    0.00
   2.830   19.06   -6.51   -1.98   0.000   0.200   0.000    0.00
   2.840   18.69   -6.39   -2.20   0.000   0.200   0.000    0.00
   2.850   18.96   -6.77   -2.18   0.000   0.200   0.000    0.00
   2.860   19.42   -6.03   -2.26   0.000   0.200   0.000    0.00
   2.870   18.91   -5.05   -2.64   0.000   0.200   0.000    0.00
   2.880   19.08   -4.38   -2.53   0.000   0.200   0.000    0.00
   2.890   19.52   -4.33   -3.23   0.000   0.200   0.000    0.00
   2.900   19.72   -4.75   -2.96   0.000   0.200   0.000    0.00
   2.910   19.89   -4.74   -2.62   0.000   0.200   0.000    0.00
   2.920   19.73   -4.96   -3.91   0.000   0.200   0.000    0.00
   2.930   19.37   -7.48   -3.89   0.000   0.200   0.000    0.00
   2.940   19.53   -5.67   -3.95   0.000   0.200   0.000    0.00
   2.950   19.45   -4.83   -3.81   0.000   0.200   0.000    0.00
   2.960   19.61   -6.26   -4.40   0.000   0.200   0.000    0.00
   2.970   19.44   -5.25   -4.01   0.000   0.200   0.000    0.00
   2.980   19.51   -3.55   -4.56   0.000   0.200   0.000    0.00
   2.990   19.28   -3.22   -4.43   0.000   0.200   0.000    0.00
   3.000   19.40   -4.41   -4.68   0.000   0.200   0.000    0.00
   3.010   19.75   -3.01   -4.01   0.000   0.200   0.000    0.00
   3.020   19.90   -3.46   -3.17   0.000   0.200   0.000    0.00
   3.030   20.05   -4.43   -2.74   0.000   0.200   0.000    0.00
   3.040   20.00   -4.84   -2.63   0.000   0.200   0.000    0.00
   3.050   19.83   -4.02   -2.15   0.000   0.200   0.000    0.00
   3.060   20.01   -1.76   -2.55   0.000   0.200   0.000    0.00
   3.070   19.98   -1.29   -2.85   0.000   0.200   0.000    0.00
   3.080   20.31   -4.07   -3.09   0.000   0.200   0.000    0.00
   3.090   20.12   -4.80   -2.36   0.000   0.200   0.000    0.00
   3.100   19.58   -1.70   -2.25   0.000   0.200   0.000    0.00
   3.110   19.85   -4.02   -2.29   0.000   0.200   0.000    0.00
   3.120   19.75   -4.31   -2.59   0.000   0.200   0.000    0.00
   3.130   20.45   -6.42   -2.46   0.000   0.200   0.000    0.00
   3.140   20.36   -7.94   -2.26   0.000   0.200   0.000    0.00
   3.150   20.57   -6.09   -1.98   0.000   0.200   0.000    0.00
   3.160   20.64   -3.92   -1.84   0.000   0.200   0.000    0.00
   3.170   20.74   -4.27   -2.01   0.000   0.200   0.000    0.00
   3.180   20.65   -4.56   -1.91   0.000   0.200   0.000    0.00
   3.190   20.52   -5.25   -1.81   0.000   0.200   0.000    0.00
   3.200   20.30   -5.39   -1.83   0.000   0.200   0.000    0.00
   3.210   19.91   -6.58   -1.88   0.000   0.200   0.000    0.00
   3.220   20.32   -5.44   -2.39   0.000   0.200   0.000    0.00
   3.230   20.54   -4.50   -2.60   0.000   0.200   0.000    0.00
   3.240   20.66   -5.82   -2.14   0.000   0.200   0.000    0.00
   3.250   21.02   -4.93   -2.41   0.000   0.200   0.000    0.00
   3.260   20.95   -4.16   -2.28   0.000   0.200   0.000    0.00
   3.270   21.77   -4.96   -2.13   0.000   0.200   0.000    0.00
   3.280   21.09   -5.02   -2.65   0.000   0.200   0.000    0.00
   3.290   20.69   -4.07   -2.41   0.000   0.200   0.000    0.00
   3.300   20.47   -3.00   -1.82   0.000   0.200   0.000    0.00
   3.310   20.06   -2.98   -2.52   0.000   0.200   0.000    0.00
   3.320   20.51   -3.50   -1.98   0.000   0.200   0.000    0.00
   3.330   20.32   -4.13   -2.69   0.000   0.200   0.000    0.00
   3.340   20.03   -5.08   -2.56   0.000   0.200   0.000    0.00
   3.350   20.47   -4.61   -2.11   0.000   0.200   0.000    0.00
   3.360   19.70   -4.44   -1.88   0.000   0.200   0.000    0.00
   3.370   19.28   -4.47   -1.87   0.000   0.200   0.000    0.00
   3.380   19.07   -4.04   -1.89   0.000   0.200   0.000    0.00
   3.390   18.95   -4.78   -1.74   0.000   0.200   0.000    0.00
   3.400   18.93   -4.54   -2.06   0.000   0.200   0.000    0.00
   3.410   18.16   -5.07   -2.00   0.000   0.200   0.000    0.00
   3.420   17.96   -4.02   -1.90   0.000   0.200   0.000    0.00
   3.430   17.69   -2.05   -2.28   0.000   0.200   0.000    0.00
   3.440   18.32   -1.16   -2.30   0.000   0.200   0.000    0.00
   3.450   18.78   -2.58   -2.16   0.000   0.200   0.000    0.00
   3.460   18.92   -3.41   -2.56   0.000   0.200   0.000    0.00
   3.470   19.01   -3.52   -2.05   0.000   0.200   0.000    0.00
   3.480   18.36   -5.04   -2.35   0.000   0.200   0.000    0.00
   3.490   18.49   -5.05   -3.01   0.000   0.200   0.000    0.00
   3.500   19.14   -4.51   -2.82   0.000   0.200   0.000    0.00
   3.510   19.11   -3.13   -2.00   0.000   0.200   0.000    0.00
   3.520   19.11   -3.19   -2.38   0.000   0.200   0.000    0.00
   3.530   18.79   -3.04   -1.70   0.000   0.200   0.000    0.00
   3.540   19.31   -4.23   -1.38   0.000   0.200   0.000    0.00
   3.550   19.04   -5.47   -1.50   0.000   0.200   0.000    0.00
   3.560   19.12   -3.24   -2.00   0.000   0.200   0.000    0.00
   3.570   18.67   -3.88   -3.04   0.000   0.200   0.000    0.00
   3.580   18.68   -3.42   -2.62   0.000   0.200   0.000    0.00
   3.590   19.23   -4.24   -2.38   0.000   0.200   0.000    0.00
   3.600   19.46   -5.24   -3.03   0.000   0.200   0.000    0.00
   3.610   19.30   -5.31   -2.60   0.000   0.200   0.000    0.00
   3.620   19.39   -6.23   -2.89   0.000   0.200   0.000    0.00
   3.630   19.03   -5.20   -3.32   0.000   0.200   0.000    0.00
   3.640   19.41   -4.82   -2.92   0.000   0.200   0.000    0.00
   3.650   19.75   -6.63   -2.84   0.000   0.200   0.000    0.00
   3.660   20.14   -8.64   -2.64   0.000   0.200   0.000    0.00
   3.670   20.43   -6.34   -3.06   0.000   0.200   0.000    0.00
   3.680   20.49   -4.46   -3.53   0.000   0.200   0.000    0.00
   3.690   20.33   -7.76   -3.38   0.000   0.200   0.000    0.00
   3.700   20.59   -7.07   -3.18   0.000   0.200   0.000    0.00
   3.710   20.82   -5.21   -3.03   0.000   0.200   0.000    0.00
   3.720   20.53   -6.90   -3.71   0.000   0.200   0.000    0.00
   3.730   20.51   -6.96   -3.80   0.000   0.200   0.000    0.00
   3.740   20.29   -8.42   -2.75   0.000   0.200   0.000    0.00
   3.750   20.27   -8.16   -2.81   0.000   0.200   0.000    0.00
   3.760   20.74  -10.04   -2.74   0.000   0.200   0.000    0.00
   3.770   20.50   -8.64   -1.94   0.000   0.200   0.000    0.00
   3.780   20.45   -8.14   -2.27   0.000   0.200   0.000    0.00
   3.790   20.33   -8.23   -2.44   0.000   0.200   0.000    0.00
   3.800   20.02   -6.87   -2.26   0.000   0.200   0.000    0.00
   3.810   20.49   -7.47   -1.97   0.000   0.200   0.000    0.00
   3.820   20.43   -7.63   -2.02   0.000   0.200   0.000    0.00
   3.830   20.54   -6.24   -2.80   0.000   0.200   0.000    0.00
   3.840   20.67   -6.36   -2.61   0.000   0.200   0.000    0.00
   3.850   20.55   -6.01   -2.77   0.000   0.200   0.000    0.00
   3.860   20.38   -6.49   -2.19   0.000   0.200   0.000    0.00
   3.870   20.37   -6.08   -2.03   0.000   0.200   0.000    0.00
   3.880   21.16   -3.32   -1.26   0.000   0.200   0.000    0.00
   3.890   21.19   -2.61   -1.21   0.000   0.200   0.000    0.00
   3.900   21.22   -3.02   -1.68   0.000   0.200   0.000    0.00
   3.910   20.58   -4.46   -1.79   0.000   0.200   0.000    0.00
   3.920   20.41   -4.25   -1.55   0.000   0.200   0.000    0.00
   3.930   21.00   -4.55   -0.97   0.000   0.200   0.000    0.00
   3.940   21.05   -5.16   -0.96   0.000   0.200   0.000    0.00
   3.950   21.18   -4.90   -1.62   0.000   0.200   0.000    0.00
   3.960   20.88   -5.25   -1.88   0.000   0.200   0.000    0.00
   3.970   21.30   -5.53   -1.31   0.000   0.200   0.000    0.00
   3.980   21.42   -4.76   -1.04   0.000   0.200   0.000    0.00
   3.990   20.94   -4.62   -1.93   0.000   0.200   0.000    0.00
   4.000   20.99   -6.20   -1.93   0.000   0.200   0.000    0.00
   4.010   21.13   -5.94   -2.09   0.000   0.200   0.000    0.00
   4.020   21.03   -6.82   -1.49   0.000   0.200   0.000    0.00
   4.030   20.62   -6.25   -1.31   0.000   0.200   0.000    0.00
   4.040   20.35   -3.20   -0.71   0.000   0.200   0.000    0.00
   4.050   20.51   -2.11   -0.56   0.000   0.200   0.000    0.00
   4.060   21.15   -4.03   -1.41   0.000   0.200   0.000    0.00
   4.070   21.43   -4.48   -0.92   0.000   0.200   0.000    0.00
   4.080   21.50   -5.75   -0.87   0.000   0.200   0.000    0.00
   4.090   21.80   -4.42   -0.21   0.000   0.200   0.000    0.00
   4.100   21.54   -5.45   -0.30   0.000   0.200   0.000    0.00
   4.110   21.44   -6.65   -0.50   0.000   0.200   0.000    0.00
   4.120   21.78   -5.52    0.04   0.000   0.200   0.000    0.00
   4.130   21.96   -4.93    0.68   0.000   0.200   0.000    0.00
   4.140   22.08   -5.40   -0.01   0.000   0.200   0.000    0.00
   4.150   22.52   -5.00   -0.31   0.000   0.200   0.000    0.00
   4.160   22.20   -5.92   -0.63   0.000   0.200   0.000    0.00
   4.170   22.27   -6.92   -0.43   0.000   0.200   0.000    0.00
   4.180   22.06   -7.33   -0.83   0.000   0.200   0.000    0.00
   4.190   22.08   -7.66   -0.09   0.000   0.200   0.000    0.00
   4.200   22.34   -8.14    0.52   0.000   0.200   0.000    0.00
   4.210   22.19   -7.74    0.39   0.000   0.200   0.000    0.00
   4.220   22.43   -8.42    0.59   0.000   0.200   0.000    0.00
   4.230   22.45   -7.58   -0.31   0.000   0.200   0.000    0.00
   4.240   23.05   -7.89   -0.77   0.000   0.200   0.000    0.00
   4.250   22.80   -7.13   -0.75   0.000   0.200   0.000    0.00
   4.260   22.97   -7.21   -0.57   0.000   0.200   0.000    0.00
   4.270   22.96   -6.06   -0.53   0.000   0.200   0.000    0.00
   4.280   23.57   -5.41   -0.60   0.000   0.200   0.000    0.00
   4.290   23.27   -4.99   -1.02   0.000   0.200   0.000    0.00
   4.300   23.01   -4.48   -0.87   0.000   0.200   0.000    0.00
   4.310   22.66   -2.95   -0.17   0.000   0.200   0.000    0.00
   4.320   22.04   -2.79    0.17   0.000   0.200   0.000    0.00
   4.330   21.94   -3.30   -0.11   0.000   0.200   0.000    0.00
   4.340   22.11   -4.31   -0.15   0.000   0.200   0.000    0.00
   4.350   22.40   -4.47   -0.42   0.000   0.200   0.000    0.00
   4.360   22.69   -4.42   -0.60   0.000   0.200   0.000    0.00
   4.370   22.62   -6.19    0.03   0.000   0.200   0.000    0.00
   4.380   22.49   -6.39   -0.52   0.000   0.200   0.000    0.00
   4.390   23.33   -4.75   -0.90   0.000   0.200   0.000    0.00
   4.400   22.97   -6.22   -0.76   0.000   0.200   0.000    0.00
   4.410   22.84   -7.35   -0.86   0.000   0.200   0.000    0.00
   4.420   22.47   -7.62   -0.81   0.000   0.200   0.000    0.00
   4.430   22.06   -7.34   -0.74   0.000   0.200   0.000    0.00
   4.440   21.80   -6.60   -1.21   0.000   0.200   0.000    0.00
   4.450   22.06   -5.91   -1.24   0.000   0.200   0.000    0.00
   4.460   22.49   -3.90   -0.56   0.000   0.200   0.000    0.00
   4.470   22.55   -3.70   -0.17   0.000   0.200   0.000    0.00
   4.480   22.85   -4.45    0.64   0.000   0.200   0.000    0.00
   4.490   22.28   -3.39    0.85   0.000   0.200   0.000    0.00
   4.500   22.07   -4.25    0.73   0.000   0.200   0.000    0.00
   4.510   22.28   -4.76    0.53   0.000   0.200   0.000    0.00
   4.520   21.91   -4.25    0.59   0.000   0.200   0.000    0.00
   4.530   21.37   -5.70    0.49   0.000   0.200   0.000    0.00
   4.540   21.31   -5.82    0.25   0.000   0.200   0.000    0.00