! This hub-height wind-speed file was generated by TurbSim (from OpenFAST--128-NOTFOUND) on 23-Aug-2023 at 09:41:12.
!
! The requested statistics for this data were:
!    Mean Total Wind Speed =   20.000 m/s
!    Turbulence Intensity  =   14.420%
!
!   Time  HorSpd  WndDir  VerSpd  HorShr  VerShr  LnVShr  GstSpd
!  (sec)   (m/s)   (deg)   (m/s)     (-)     (-)     (-)   (m/s)
   0.000   16.64    3.58   -6.17   0.000   0.200   0.000    0.00
   0.010   16.63    4.96   -6.05   0.000   0.200   0.000    0.00
   0.020   16.59    3.35   -6.17   0.000   0.200   0.000    0.00
   0.030   16.54    2.61   -6.15   0.000   0.200   0.000    0.00
   0.040   16.99    1.07   -5.91   0.000   0.200   0.000    0.00
   0.050   17.19   -1.32   -5.90   0.000   0.200   0.000    0.00
   0.060   17.35   -2.79   -5.48   0.000   0.200   0.000    0.00
   0.070   17.31   -3.35   -5.67   0.000   0.200   0.000    0.00
   0.080   16.88   -3.97   -5.22   0.000   0.200   0.000    0.00
   0.090   16.32   -2.51   -5.39   0.000   0.200   0.000    0.00
   0.100   16.20   -1.29   -5.20   0.000   0.200   0.000    0.00
   0.110   15.89   -1.51   -5.18   0.000   0.200   0.000    0.00
   0.120   16.44    1.90   -5.06   0.000   0.200   0.000    0.00
   0.130   16.70    2.40   -5.08   0.000   0.200   0.000    0.00
   0.140   17.04    4.43   -4.92   0.000   0.200   0.000    0.00
   0.150   17.34    3.14   -3.74   0.000   0.200   0.000    0.00
   0.160   17.35    1.65   -3.30   0.000   0.200   0.000    0.00
   0.170   17.21    2.50   -3.77   0.000   0.200   0.000    0.00
   0.180   17.37    3.45   -4.13   0.000   0.200   0.000    0.00
   0.190   17.06    4.82   -4.23   0.000   0.200   0.000    0.00
   0.200   16.84    5.17   -4.85   0.000   0.200   0.000    0.00
   0.210   17.15    4.89   -4.77   0.000   0.200   0.000    0.00
   0.220   17.42    4.05   -4.91   0.000   0.200   0.000    0.00
   0.230   17.59    3.49   -4.28   0.000   0.200   0.000    0.00
   0.240   17.29    2.99   -4.87   0.000   0.200   0.000    0.00
   0.250   17.26    2.48   -5.21   0.000   0.200   0.000    0.00
   0.260   17.03    2.70   -5.10   0.000   0.200   0.000    0.00
   0.270   16.89    5.47   -4.92   0.000   0.200   0.000    0.00
   0.280   16.90    5.34   -4.82   0.000   0.200   0.000    0.00
   0.290   16.74    4.19   -5.06   0.000   0.200   0.000    0.00
   0.300   16.51    3.13   -4.12   0.000   0.200   0.000    0.00
   0.310   16.70    3.30   -4.01   0.000   0.200   0.000    0.00
   0.320   17.24    0.76   -4.26   0.000   0.200   0.000    0.00
   0.330   16.72   -0.82   -4.17   0.000   0.200   0.000    0.00
   0.340   16.42    0.06   -4.43   0.000   0.200   0.000    0.00
   0.350   16.74   -1.22   -4.62   0.000   0.200   0.000    0.00
   0.360   16.36   -2.46   -5.00   0.000   0.200   0.000    0.00
   0.370   16.71   -2.17   -5.21   0.000   0.200   0.000    0.00
   0.380   16.50   -1.68   -5.12   0.000   0.200   0.000    0.00
   0.390   16.94   -1.60   -5.62   0.000   0.200   0.000    0.00
   0.400   17.13   -3.69   -5.79   0.000   0.200   0.000    0.00
   0.410   17.01   -6.18   -5.93   0.000   0.200   0.000    0.00
   0.420   17.07   -6.41   -5.45   0.000   0.200   0.000    0.00
   0.430   16.48   -4.84   -5.48   0.000   0.200   0.000    0.00
   0.440   17.03   -4.88   -5.81   0.000   0.200   0.000    0.00
   0.450   17.31   -5.37   -5.54   0.000   0.200   0.000    0.00
   0.460   17.39   -4.35   -5.92   0.000   0.200   0.000    0.00
   0.470   17.20   -3.36   -5.94   0.000   0.200   0.000    0.00
   0.480   16.82   -2.81   -5.88   0.000   0.200   0.000    0.00
   0.490   16.81   -0.10   -6.29   0.000   0.200   0.000    0.00
   0.500   16.56    0.42   -6.03   0.000   0.200   0.000    0.00
   0.510   16.33   -1.76   -6.21   0.000   0.200   0.000    0.00
   0.520   16.85   -2.06   -6.06   0.000   0.200   0.000    0.00
   0.530   17.04   -3.05   -6.13   0.000   0.200   0.000    0.00
   0.540   17.03   -4.63   -5.42   0.000   0.200   0.000    0.00
   0.550   17.55   -3.10   -5.32   0.000   0.200   0.000    0.00
   0.560   17.27   -2.31   -4.83   0.000   0.200   0.000    0.00
   0.570   17.13   -1.83   -4.83   0.000   0.200   0.000    0.00
   0.580   16.95    0.72   -5.33   0.000   0.200   0.000    0.00
   0.590   16.68   -1.15   -4.79   0.000   0.200   0.000    0.00
   0.600   17.16   -0.72   -5.15   0.000   0.200   0.000    0.00
   0.610   17.35   -2.82   -5.05   0.000   0.200   0.000    0.00
   0.620   17.43   -0.87   -5.04   0.000   0.200   0.000    0.00
   0.630   17.49   -3.45   -5.36   0.000   0.200   0.000    0.00
   0.640   17.84   -3.22   -5.36   0.000   0.200   0.000    0.00
   0.650   17.67   -3.22   -5.17   0.000   0.200   0.000    0.00
   0.660   17.37   -1.07   -5.29   0.000   0.200   0.000    0.00
   0.670   18.02   -2.60   -4.84   0.000   0.200   0.000    0.00
   0.680   18.52   -1.19   -5.58   0.000   0.200   0.000    0.00
   0.690   18.62   -0.94   -5.77   0.000   0.200   0.000    0.00
   0.700   19.05   -0.97   -5.58   0.000   0.200   0.000    0.00
   0.710   19.07   -0.70   -6.20   0.000   0.200   0.000    0.00
   0.720   18.96   -1.06   -6.21   0.000   0.200   0.000    0.00
   0.730   18.79   -0.19   -6.62   0.000   0.200   0.000    0.00
   0.740   18.98    0.95   -6.56   0.000   0.200   0.000    0.00
   0.750   18.94    0.52   -7.18   0.000   0.200   0.000    0.00
   0.760   19.03    0.50   -6.31   0.000   0.200   0.000    0.00
   0.770   19.26    0.94   -6.21   0.000   0.200   0.000    0.00
   0.780   18.45    0.23   -6.18   0.000   0.200   0.000    0.00
   0.790   18.23    0.18   -6.32   0.000   0.200   0.000    0.00
   0.800   18.62   -0.98   -6.63   0.000   0.200   0.000    0.00
   0.810   18.19   -0.24   -6.07   0.000   0.200   0.000    0.00
   0.820   18.62    0.77   -5.28   0.000   0.200   0.000    0.00
   0.830   18.29    1.56   -5.81   0.000   0.200   0.000    0.00
   0.840   18.38    0.92   -6.00   0.000   0.200   0.000    0.00
   0.850   18.26    1.49   -5.98   0.000   0.200   0.000    0.00
   0.860   18.60   -0.76   -5.98   0.000   0.200   0.000    0.00
   0.870   18.65   -0.29   -5.51   0.000   0.200   0.000    0.00
   0.880   18.71   -1.83   -5.40   0.000   0.200   0.000    0.00
   0.890   18.93   -2.97   -5.46   0.000   0.200   0.000    0.00
   0.900   18.92   -4.03   -5.18   0.000   0.200   0.000    0.00
   0.910   19.17   -4.32   -6.12   0.000   0.200   0.000    0.00
   0.920   18.99   -3.70   -5.79   0.000   0.200   0.000    0.00
   0.930   18.50   -2.30   -5.78   0.000   0.200   0.000    0.00
   0.940   17.85   -3.62   -6.12   0.000   0.200   0.000    0.00
   0.950   17.87   -3.87   -5.57   0.000   0.200   0.000    0.00
   0.960   18.00   -2.17   -6.16   0.000   0.200   0.000    0.00
   0.970   17.51   -2.09   -5.99   0.000   0.200   0.000    0.00
   0.980   17.17   -4.52   -5.25   0.000   0.200   0.000    0.00
   0.990   17.10   -3.57   -5.70   0.000   0.200   0.000    0.00
   1.000   16.70   -3.67   -6.04   0.000   0.200   0.000    0.00
   1.010   16.57   -2.29   -6.24   0.000   0.200   0.000    0.00
   1.020   16.92   -1.41   -6.41   0.000   0.200   0.000    0.00
   1.030   17.03   -1.33   -6.50   0.000   0.200   0.000    0.00
   1.040   17.36   -2.53   -6.56   0.000   0.200   0.000    0.00
   1.050   17.62   -0.43   -6.38   0.000   0.200   0.000    0.00
   1.060   17.32   -1.30   -6.00   0.000   0.200   0.000    0.00
   1.070   17.71   -1.62   -6.19   0.000   0.200   0.000    0.00
   1.080   17.41    0.49   -5.62   0.000   0.200   0.000    0.00
   1.090   17.79   -0.85   -4.97   0.000   0.200   0.000    0.00
   1.100   17.94   -1.79   -5.07   0.000   0.200   0.000    0.00
   1.110   18.42   -0.49   -4.90   0.000   0.200   0.000    0.00
   1.120   19.13    0.14   -5.55   0.000   0.200   0.000    0.00
   1.130   19.25   -0.75   -5.04   0.000   0.200   0.000    0.00
   1.140   19.33   -0.39   -4.67   0.000   0.200   0.000    0.00
   1.150   19.30   -0.65   -4.19   0.000   0.200   0.000    0.00
   1.160   19.90    1.13   -4.03   0.000   0.200   0.000    0.00
   1.170   19.85    0.45   -4.24   0.000   0.200   0.000    0.00
   1.180   19.98    0.58   -4.00   0.000   0.200   0.000    0.00
   1.190   20.38    0.82   -4.31   0.000   0.200   0.000    0.00
   1.200   20.08    2.38   -3.79   0.000   0.200   0.000    0.00
   1.210   20.29    0.89   -4.12   0.000   0.200   0.000    0.00
   1.220   19.71    1.60   -4.30   0.000   0.200   0.000    0.00
   1.230   19.53    1.14   -4.09   0.000   0.200   0.000    0.00
   1.240   19.93    0.49   -4.07   0.000   0.200   0.000    0.00
   1.250   19.59    1.00   -4.14   0.000   0.200   0.000    0.00
   1.260   19.93    1.57   -4.86   0.000   0.200   0.000    0.00
   1.270   19.87    1.35   -4.85   0.000   0.200   0.000    0.00
   1.280   20.08   -0.12   -4.69   0.000   0.200   0.000    0.00
   1.290   19.73   -0.73   -5.28   0.000   0.200   0.000    0.00
   1.300   19.92   -2.33   -5.36   0.000   0.200   0.000    0.00
   1.310   20.47   -0.61   -5.08   0.000   0.200   0.000    0.00
   1.320   20.82   -1.39   -5.62   0.000   0.200   0.000    0.00
   1.330   20.61   -0.70   -5.10   0.000   0.200   0.000    0.00
   1.340   20.86   -0.98   -5.41   0.000   0.200   0.000    0.00
   1.350   20.49    0.91   -5.71   0.000   0.200   0.000    0.00
   1.360   20.49    1.71   -5.63   0.000   0.200   0.000    0.00
   1.370   20.05   -0.17   -5.59   0.000   0.200   0.000    0.00
   1.380   19.91    0.33   -5.89   0.000   0.200   0.000    0.00
   1.390   19.96    0.91   -6.19   0.000   0.200   0.000    0.00
   1.400   19.73    0.29   -6.45   0.000   0.200   0.000    0.00
   1.410   19.71    2.15   -6.07   0.000   0.200   0.000    0.00
   1.420   19.70    2.67   -5.80   0.000   0.200   0.000    0.00
   1.430   19.83    0.70   -6.00   0.000   0.200   0.000    0.00
   1.440   19.21    0.73   -6.21   0.000   0.200   0.000    0.00
   1.450   19.36   -0.17   -5.36   0.000   0.200   0.000    0.00
   1.460   19.43   -0.13   -6.02   0.000   0.200   0.000    0.00
   1.470   19.21    1.30   -6.09   0.000   0.200   0.000    0.00
   1.480   19.43   -1.47   -6.53   0.000   0.200   0.000    0.00
   1.490   19.38   -2.65   -6.86   0.000   0.200   0.000    0.00
   1.500   19.97   -1.35   -6.74   0.000   0.200   0.000    0.00
   1.510   20.10    0.04   -6.73   0.000   0.200   0.000    0.00
   1.520   20.65    1.47   -7.26   0.000   0.200   0.000    0.00
   1.530   20.74    2.79   -6.76   0.000   0.200   0.000    0.00
   1.540   20.70    3.21   -6.38   0.000   0.200   0.000    0.00
   1.550   21.08    3.24   -5.95   0.000   0.200   0.000    0.00
   1.560   21.05    4.44   -6.03   0.000   0.200   0.000    0.00
   1.570   21.06    4.49   -5.82   0.000   0.200   0.000    0.00
   1.580   20.94    3.98   -6.62   0.000   0.200   0.000    0.00
   1.590   20.84    3.10   -7.04   0.000   0.200   0.000    0.00
   1.600   20.88    3.18   -7.23   0.000   0.200   0.000    0.00
   1.610   20.84    2.81   -7.15   0.000   0.200   0.000    0.00
   1.620   20.85    2.01   -6.13   0.000   0.200   0.000    0.00
   1.630   20.61    1.76   -6.64   0.000   0.200   0.000    0.00
   1.640   20.43    1.40   -6.20   0.000   0.200   0.000    0.00
   1.650   20.21    1.19   -6.69   0.000   0.200   0.000    0.00
   1.660   20.01    0.66   -6.98   0.000   0.200   0.000    0.00
   1.670   20.37   -0.17   -7.00   0.000   0.200   0.000    0.00
   1.680   20.29   -0.08   -6.76   0.000   0.200   0.000    0.00
   1.690   20.17   -0.59   -6.28   0.000   0.200   0.000    0.00
   1.700   19.71   -0.41   -6.01   0.000   0.200   0.000    0.00
   1.710   19.59    0.70   -6.12   0.000   0.200   0.000    0.00
   1.720   19.65    0.84   -6.39   0.000   0.200   0.000    0.00
   1.730   19.73    0.14   -6.84   0.000   0.200   0.000    0.00
   1.740   19.80   -0.32   -6.70   0.000   0.200   0.000    0.00
   1.750   19.85   -0.64   -6.62   0.000   0.200   0.000    0.00
   1.760   19.66   -1.36   -6.50   0.000   0.200   0.000    0.00
   1.770   19.74   -0.52   -6.15   0.000   0.200   0.000    0.00
   1.780   19.46   -0.97   -6.52   0.000   0.200   0.000    0.00
   1.790   19.57   -1.50   -6.39   0.000   0.200   0.000    0.00
   1.800   19.71   -0.91   -6.05   0.000   0.200   0.000    0.00
   1.810   19.99   -1.21   -6.05   0.000   0.200   0.000    0.00
   1.820   19.93   -0.99   -6.63   0.000   0.200   0.000    0.00
   1.830   19.90   -1.78   -6.79   0.000   0.200   0.000    0.00
   1.840   19.73   -2.64   -6.96   0.000   0.200   0.000    0.00
   1.850   19.73   -2.49   -6.67   0.000   0.200   0.000    0.00
   1.860   19.66   -2.37   -6.51   0.000   0.200   0.000    0.00
   1.870   19.25   -1.44   -6.41   0.000   0.200   0.000    0.00
   1.880   19.24   -3.05   -6.70   0.000   0.200   0.000    0.00
   1.890   19.29   -3.26   -6.33   0.000   0.200   0.000    0.00
   1.900   19.31   -2.14   -5.90   0.000   0.200   0.000    0.00
   1.910   19.41   -0.96   -6.13   0.000   0.200   0.000    0.00
   1.920   19.63   -1.04   -6.77   0.000   0.200   0.000    0.00
   1.930   19.73   -1.92   -6.09   0.000   0.200   0.000    0.00
   1.940   19.87   -1.56   -5.92   0.000   0.200   0.000    0.00
   1.950   20.28   -1.98   -6.21   0.000   0.200   0.000    0.00
   1.960   19.97   -3.87   -6.42   0.000   0.200   0.000    0.00
   1.970   19.77   -2.94   -5.56   0.000   0.200   0.000    0.00
   1.980   19.79   -2.17   -5.48   0.000   0.200   0.000    0.00
   1.990   20.08   -1.92   -5.18   0.000   0.200   0.000    0.00
   2.000   20.23   -4.24   -4.99   0.000   0.200   0.000    0.00
   2.010   20.38   -4.33   -5.23   0.000   0.200   0.000    0.00
   2.020   20.33   -3.46   -5.58   0.000   0.200   0.000    0.00
   2.030   20.23   -3.03   -5.65   0.000   0.200   0.000    0.00
   2.040   19.52   -2.13   -5.91   0.000   0.200   0.000    0.00
   2.050   19.48   -2.27   -5.50   0.000   0.200   0.000    0.00
   2.060   20.26   -3.52   -5.45   0.000   0.200   0.000    0.00
   2.070   20.48   -3.98   -5.48   0.000   0.200   0.000    0.00
   2.080   20.29   -3.92   -5.50   0.000   0.200   0.000    0.00
   2.090   19.61   -4.03   -5.43   0.000   0.200   0.000    0.00
   2.100   19.39   -2.84   -5.57   0.000   0.200   0.000    0.00
   2.110   19.37   -3.58   -5.58   0.000   0.200   0.000    0.00
   2.120   19.49   -4.45   -5.75   0.000   0.200   0.000    0.00
   2.130   19.92   -5.81   -5.17   0.000   0.200   0.000    0.00
   2.140   19.92   -4.96   -5.00   0.000   0.200   0.000    0.00
   2.150   19.62   -5.08   -5.45   0.000   0.200   0.000    0.00
   2.160   19.43   -3.74   -5.39   0.000   0.200   0.000    0.00
   2.170   19.79   -4.59   -5.65   0.000   0.200   0.000    0.00
   2.180   20.26   -3.51   -5.32   0.000   0.200   0.000    0.00
   2.190   20.28   -3.60   -5.86   0.000   0.200   0.000    0.00
   2.200   20.45   -2.79   -5.43   0.000   0.200   0.000    0.00
   2.210   20.08   -2.50   -5.10   0.000   0.200   0.000    0.00
   2.220   20.51   -1.17   -4.73   0.000   0.200   0.000    0.00
   2.230   20.58   -1.54   -3.98   0.000   0.200   0.000    0.00
   2.240   20.04   -1.82   -4.70   0.000   0.200   0.000    0.00
   2.250   20.04   -1.66   -5.38   0.000   0.200   0.000    0.00
   2.260   20.91   -2.45   -4.70   0.000   0.200   0.000    0.00
   2.270   20.81   -2.34   -5.07   0.000   0.200   0.000    0.00
   2.280   20.85   -2.10   -5.61   0.000   0.200   0.000    0.00
   2.290   20.80   -1.69   -5.68   0.000   0.200   0.000    0.00
   2.300   21.07   -1.73   -6.37   0.000   0.200   0.000    0.00
   2.310   20.79   -1.44   -5.56   0.000   0.200   0.000    0.00
   2.320   20.92   -2.71   -5.33   0.000   0.200   0.000    0.00
   2.330   20.75   -2.71   -5.72   0.000   0.200   0.000    0.00
   2.340   20.64   -1.77   -5.15   0.000   0.200   0.000    0.00
   2.350   20.74   -0.18   -5.68   0.000   0.200   0.000    0.00
   2.360   20.77   -1.68   -5.92   0.000   0.200   0.000    0.00
   2.370   21.09   -1.38   -5.70   0.000   0.200   0.000    0.00
   2.380   21.40   -1.87   -5.87   0.000   0.200   0.000    0.00
   2.390   21.31   -2.71   -6.29   0.000   0.200   0.000    0.00
   2.400   21.64   -3.55   -6.16   0.000   0.200   0.000    0.00
   2.410   21.66   -3.72   -5.93   0.000   0.200   0.000    0.00
   2.420   21.31   -4.06   -5.79   0.000   0.200   0.000    0.00
   2.430   22.04   -3.45   -5.70   0.000   0.200   0.000    0.00
   2.440   21.78   -1.35   -6.29   0.000   0.200   0.000    0.00
   2.450   21.93   -1.70   -6.48   0.000   0.200   0.000    0.00
   2.460   22.31   -2.60   -5.90   0.000   0.200   0.000    0.00
   2.470   22.52   -2.97   -6.15   0.000   0.200   0.000    0.00
   2.480   22.80   -3.01   -6.12   0.000   0.200   0.000    0.00
   2.490   23.16   -3.55   -5.81   0.000   0.200   0.000    0.00
   2.500   23.18   -3.97   -5.67   0.000   0.200   0.000    0.00
   2.510   22.96   -3.89   -5.97   0.000   0.200   0.000    0.00
   2.520   22.04   -3.35   -6.05   0.000   0.200   0.000    0.00
   2.530   22.32   -3.78   -6.19   0.000   0.200   0.000    0.00
   2.540   22.51   -1.78   -6.30   0.000   0.200   0.000    0.00
   2.550   22.58   -1.51   -5.77   0.000   0.200   0.000    0.00
   2.560   21.98   -2.41   -5.69   0.000   0.200   0.000    0.00
   2.570   21.99   -1.61   -5.76   0.000   0.200   0.000    0.00
   2.580   22.09   -1.96   -6.23   0.000   0.200   0.000    0.00
   2.590   22.11   -1.85   -5.96   0.000   0.200   0.000    0.00
   2.600   22.23   -2.53   -5.46   0.000   0.200   0.000    0.00
   2.610   22.12   -3.06   -5.93   0.000   0.200   0.000    0.00
   2.620   22.28   -3.57   -6.10   0.000   0.200   0.000    0.00
   2.630   22.19   -3.97   -6.21   0.000   0.200   0.000    0.00
   2.640   22.05   -4.40   -6.01   0.000   0.200   0.000    0.00
   2.650   21.68   -3.21   -6.18   0.000   0.200   0.000    0.00
   2.660   21.62   -4.00   -6.57   0.000   0.200   0.000    0.00
   2.670   21.38   -4.17   -7.40   0.000   0.200   0.000    0.00
   2.680   21.55   -3.21   -7.93   0.000   0.200   0.000    0.00
   2.690   21.62   -3.07   -8.33   0.000   0.200   0.000    0.00
   2.700   21.67   -2.72   -8.22   0.000   0.200   0.000    0.00
   2.710   22.00   -2.71   -7.89   0.000   0.200   0.000    0.00
   2.720   22.44   -2.20   -7.36   0.000   0.200   0.000    0.00
   2.730   21.86   -2.51   -7.60   0.000   0.200   0.000    0.00
   2.740   21.90   -2.02   -7.51   0.000   0.200   0.000    0.00
   2.750   22.02   -0.50   -7.33   0.000   0.200   0.000    0.00
   2.760   21.75   -0.74   -7.29   0.000   0.200   0.000    0.00
   2.770   21.76   -1.64   -7.23   0.000   0.200   0.000    0.00
   2.780   22.13   -1.12   -7.17   0.000   0.200   0.000    0.00
   2.790   21.89   -0.16   -6.70   0.000   0.200   0.000    0.00
   2.800   21.29    1.06   -6.96   0.000   0.200   0.000    0.00
   2.810   21.41    0.15   -6.96   0.000   0.200   0.000    0.00
   2.820   21.16    0.25   -6.95   0.000   0.200   0.000    0.00
   2.830   21.12    1.48   -7.08   0.000   0.200   0.000    0.00
   2.840   21.48    1.81   -7.26   0.000   0.200   0.000    0.00
   2.850   21.74   -0.14   -7.26   0.000   0.200   0.000    0.00
   2.860   21.26   -0.63   -7.03   0.000   0.200   0.000    0.00
   2.870   21.62   -1.28   -6.73   0.000   0.200   0.000    0.00
   2.880   21.52   -0.23   -6.39   0.000   0.200   0.000    0.00
   2.890   21.48   -1.41   -6.10   0.000   0.200   0.000    0.00
   2.900   21.40   -2.01   -6.32   0.000   0.200   0.000    0.00
   2.910   21.61   -0.94   -6.65   0.000   0.200   0.000    0.00
   2.920   21.37   -1.08   -7.06   0.000   0.200   0.000    0.00
   2.930   21.53   -0.15   -6.68   0.000   0.200   0.000    0.00
   2.940   21.63   -0.93   -6.89   0.000   0.200   0.000    0.00
   2.950   21.40   -1.57   -6.48   0.000   0.200   0.000    0.00
   2.960   21.67   -2.27   -6.80   0.000   0.200   0.000    0.00
   2.970   21.70   -2.99   -6.46   0.000   0.200   0.000    0.00
   2.980   21.34   -2.11   -6.39   0.000   0.200   0.000    0.00
   2.990   21.62   -2.63   -6.78   0.000   0.200   0.000    0.00
   3.000   21.43   -3.83   -6.95   0.000   0.200   0.000    0.00
   3.010   22.27   -3.30   -7.04   0.000   0.200   0.000    0.00
   3.020   22.22   -3.64   -7.11   0.000   0.200   0.000    0.00
   3.030   22.20   -2.30   -6.66   0.000   0.200   0.000    0.00
   3.040   21.69   -0.32   -5.92   0.000   0.200   0.000    0.00
   3.050   22.02   -1.07   -6.23   0.000   0.200   0.000    0.00
   3.060   22.09   -1.10   -6.42   0.000   0.200   0.000    0.00
   3.070   21.96   -0.76   -5.61   0.000   0.200   0.000    0.00
   3.080   21.28    0.03   -5.49   0.000   0.200   0.000    0.00
   3.090   21.37    1.43   -5.73   0.000   0.200   0.000    0.00
   3.100   21.67   -0.08   -5.59   0.000   0.200   0.000    0.00
   3.110   21.56   -1.31   -5.43   0.000   0.200   0.000    0.00
   3.120   21.21   -0.68   -5.44   0.000   0.200   0.000    0.00
   3.130   21.27   -1.30   -5.69   0.000   0.200   0.000    0.00
   3.140   21.18   -1.64   -5.64   0.000   0.200   0.000    0.00
   3.150   21.26   -1.74   -5.04   0.000   0.200   0.000    0.00
   3.160   21.25   -1.56   -4.86   0.000   0.200   0.000    0.00
   3.170   21.65   -1.75   -4.54   0.000   0.200   0.000    0.00
   3.180   21.59   -1.61   -4.10   0.000   0.200   0.000    0.00
   3.190   21.80   -2.11   -4.71   0.000   0.200   0.000    0.00
   3.200   21.55   -1.69   -4.74   0.000   0.200   0.000    0.00
   3.210   20.99   -2.10   -4.20   0.000   0.200   0.000    0.00
   3.220   20.65   -2.02   -3.78   0.000   0.200   0.000    0.00
   3.230   20.82   -1.63   -3.75   0.000   0.200   0.000    0.00
   3.240   20.65   -0.38   -3.71   0.000   0.200   0.000    0.00
   3.250   20.31   -1.36   -3.56   0.000   0.200   0.000    0.00
   3.260   20.93   -2.35   -3.72   0.000   0.200   0.000    0.00
   3.270   21.23   -2.29   -3.58   0.000   0.200   0.000    0.00
   3.280   21.31   -2.56   -4.58   0.000   0.200   0.000    0.00
   3.290   21.07   -3.19   -4.36   0.000   0.200   0.000    0.00
   3.300   21.31   -2.93   -4.11   0.000   0.200   0.000    0.00
   3.310   21.58   -2.75   -4.16   0.000   0.200   0.000    0.00
   3.320   21.61   -2.93   -4.66   0.000   0.200   0.000    0.00
   3.330   21.50   -1.95   -4.90   0.000   0.200   0.000    0.00
   3.340   21.77   -1.92   -4.51   0.000   0.200   0.000    0.00
   3.350   21.19   -2.96   -4.84   0.000   0.200   0.000    0.00
   3.360   21.25   -2.98   -4.12   0.000   0.200   0.000    0.00
   3.370   21.46   -1.90   -3.82   0.000   0.200   0.000    0.00
   3.380   21.93   -0.50   -4.04   0.000   0.200   0.000    0.00
   3.390   22.05   -0.86   -4.37   0.000   0.200   0.000    0.00
   3.400   22.04   -1.82   -4.91   0.000   0.200   0.000    0.00
   3.410   21.67   -0.24   -5.33   0.000   0.200   0.000    0.00
   3.420   21.64   -2.33   -6.06   0.000   0.200   0.000    0.00
   3.430   21.77   -3.51   -6.05   0.000   0.200   0.000    0.00
   3.440   21.92   -3.42   -5.99   0.000   0.200   0.000    0.00
   3.450   22.69   -3.25   -5.57   0.000   0.200   0.000    0.00
   3.460   22.74   -3.01   -5.64   0.000   0.200   0.000    0.00
   3.470   23.00   -2.61   -5.80   0.000   0.200   0.000    0.00
   3.480   22.92   -1.38   -5.32   0.000   0.200   0.000    0.00
   3.490   23.02   -1.85   -4.96   0.000   0.200   0.000    0.00
   3.500   22.60   -2.56   -4.72   0.000   0.200   0.000    0.00
   3.510   22.33   -1.87   -4.74   0.000   0.200   0.000    0.00
   3.520   22.96   -1.41   -4.86   0.000   0.200   0.000    0.00
   3.530   22.33   -0.81   -5.65   0.000   0.200   0.000    0.00
   3.540   22.08   -0.06   -5.08   0.000   0.200   0.000    0.00
   3.550   22.07   -1.52   -5.09   0.000   0.200   0.000    0.00
   3.560   21.69   -1.75   -5.79   0.000   0.200   0.000    0.00
   3.570   21.84   -1.96   -4.82   0.000   0.200   0.000    0.00
   3.580   22.00   -2.34   -5.23   0.000   0.200   0.000    0.00
   3.590   21.90   -1.94   -5.29   0.000   0.200   0.000    0.00
   3.600   21.84   -0.99   -5.87   0.000   0.200   0.000    0.00
   3.610   22.00    0.44   -5.47   0.000   0.200   0.000    0.00
   3.620   21.74    0.93   -5.94   0.000   0.200   0.000    0.00
   3.630   21.77    0.31   -5.37   0.000   0.200   0.000    0.00
   3.640   22.39    1.10   -5.25   0.000   0.200   0.000    0.00
   3.650   22.30    1.83   -5.78   0.000   0.200   0.000    0.00
   3.660   22.08    1.09   -5.69   0.000   0.200   0.000    0.00
   3.670   22.46    0.33   -6.02   0.000   0.200   0.000    0.00
   3.680   22.28    0.52   -6.11   0.000   0.200   0.000    0.00
   3.690   22.40    0.02   -5.82   0.000   0.200   0.000    0.00
   3.700   22.19   -2.35   -5.47   0.000   0.200   0.000    0.00
   3.710   22.19   -3.12   -5.02   0.000   0.200   0.000    0.00
   3.720   21.77   -2.25   -5.33   0.000   0.200   0.000    0.00
   3.730   21.97   -2.31   -5.38   0.000   0.200   0.000    0.00
   3.740   21.80   -0.86   -5.36   0.000   0.200   0.000    0.00
   3.750   22.21   -1.17   -5.07   0.000   0.200   0.000    0.00
   3.760   22.05   -1.59   -4.58   0.000   0.200   0.000    0.00
   3.770   21.90   -0.16   -4.55   0.000   0.200   0.000    0.00
   3.780   21.55    0.78   -4.52   0.000   0.200   0.000    0.00
   3.790   21.83    1.61   -4.88   0.000   0.200   0.000    0.00
   3.800   22.03    1.04   -4.62   0.000   0.200   0.000    0.00
   3.810   21.94    2.21   -4.33   0.000   0.200   0.000    0.00
   3.820   22.25    2.43   -4.37   0.000   0.200   0.000    0.00
   3.830   21.85    1.17   -4.65   0.000   0.200   0.000    0.00
   3.840   21.77    2.90   -4.94   0.000   0.200   0.000    0.00
   3.850   21.79    1.98   -5.67   0.000   0.200   0.000    0.00
   3.860   22.35    1.60   -5.44   0.000   0.200   0.000    0.00
   3.870   22.42    1.38   -5.07   0.000   0.200   0.000    0.00
   3.880   22.78    0.31   -4.53   0.000   0.200   0.000    0.00
   3.890   22.90   -0.20   -4.60   0.000   0.200   0.000    0.00
   3.900   22.53   -0.21   -4.78   0.000   0.200   0.000    0.00
   3.910   22.63   -0.33   -5.28   0.000   0.200   0.000    0.00
   3.920   23.06   -1.44   -4.91   0.000   0.200   0.000    0.00
   3.930   22.86   -2.61   -4.72   0.000   0.200   0.000    0.00
   3.940   23.20   -2.43   -5.25   0.000   0.200   0.000    0.00
   3.950   23.51   -1.86   -5.13   0.000   0.200   0.000    0.00
   3.960   23.30   -1.60   -5.55   0.000   0.200   0.000    0.00
   3.970   24.12   -0.40   -5.30   0.000   0.200   0.000    0.00
   3.980   24.06   -0.23   -5.95   0.000   0.200   0.000    0.00
   3.990   24.06   -1.01   -5.62   0.000   0.200   0.000    0.00
   4.000   24.21   -2.27   -5.23   0.000   0.200   0.000    0.00
   4.010   24.14   -2.67   -5.42   0.000   0.200   0.000    0.00
   4.020   23.93   -2.51   -5.51   0.000   0.200   0.000    0.00
   4.030   24.11   -2.97   -5.71   0.000   0.200   0.000    0.00
   4.040   24.12   -3.75   -5.52   0.000   0.200   0.000    0.00
   4.050   23.80   -3.47   -5.45   0.000   0.200   0.000    0.00
   4.060   23.65   -4.33   -6.39   0.000   0.200   0.000    0.00
   4.070   23.94   -4.84   -6.62   0.000   0.200   0.000    0.00
   4.080   24.26   -5.25   -6.05   0.000   0.200   0.000    0.00
   4.090   23.58   -3.86   -5.56   0.000   0.200   0.000    0.00
   4.100   23.40   -4.48   -4.82   0.000   0.200   0.000    0.00
   4.110   23.42   -5.25   -4.87   0.000   0.200   0.000    0.00
   4.120   23.48   -4.45   -4.76   0.000   0.200   0.000    0.00
   4.130   23.69   -4.55   -4.75   0.000   0.200   0.000    0.00
   4.140   23.58   -2.64   -4.59   0.000   0.200   0.000    0.00
   4.150   23.40   -1.65   -3.97   0.000   0.200   0.000    0.00
   4.160   23.31   -0.80   -3.85   0.000   0.200   0.000    0.00
   4.170   23.22   -0.27   -3.89   0.000   0.200   0.000    0.00
   4.180   22.97   -0.61   -4.17   0.000   0.200   0.000    0.00
   4.190   22.98   -0.95   -3.66   0.000   0.200   0.000    0.00
   4.200   23.42   -1.07   -3.65   0.000   0.200   0.000    0.00
   4.210   23.36   -0.65   -4.02   0.000   0.200   0.000    0.00
   4.220   22.91   -1.29   -3.48   0.000   0.200   0.000    0.00
   4.230   23.10   -1.88   -3.70   0.000   0.200   0.000    0.00
   4.240   22.64   -1.89   -3.66   0.000   0.200   0.000    0.00
   4.250   22.72   -1.09   -3.15   0.000   0.200   0.000    0.00
   4.260   22.73   -0.98   -3.21   0.000   0.200   0.000    0.00
   4.270   22.49   -1.89   -2.46   0.000   0.200   0.000    0.00
   4.280   22.01   -2.90   -2.88   0.000   0.200   0.000    0.00
   4.290   22.35   -2.41   -2.84   0.000   0.200   0.000    0.00
   4.300   22.06   -2.33   -3.21   0.000   0.200   0.000    0.00
   4.310   22.22   -1.54   -3.58   0.000   0.200   0.000    0.00
   4.320   22.52   -2.03   -3.29   0.000   0.200   0.000    0.00
   4.330   22.76   -1.33   -3.59   0.000   0.200   0.000    0.00
   4.340   22.16    0.54   -3.73   0.000   0.200   0.000    0.00
   4.350   22.72    0.43   -3.72   0.000   0.200   0.000    0.00
   4.360   22.63    0.08   -3.95   0.000   0.200   0.000    0.00
   4.370   22.73   -1.09   -3.23   0.000   0.200   0.000    0.00
   4.380   22.74   -0.50   -2.59   0.000   0.200   0.000    0.00
   4.390   22.81   -0.62   -2.34   0.000   0.200   0.000    0.00
   4.400   23.03   -1.37   -1.91   0.000   0.200   0.000    0.00
   4.410   22.75   -1.65   -1.52   0.000   0.200   0.000    0.00
   4.420   22.44   -1.32   -1.49   0.000   0.200   0.000    0.00
   4.430   22.54   -1.00   -1.37   0.000   0.200   0.000    0.00
   4.440   22.47   -1.11   -0.98   0.000   0.200   0.000    0.00
   4.450   22.41   -0.96   -0.95   0.000   0.200   0.000    0.00
   4.460   22.53    0.24   -1.52   0.000   0.200   0.000    0.00
   4.470   22.28    0.62   -2.31   0.000   0.200   0.000    0.00
   4.480   22.49    0.90   -2.42   0.000   0.200   0.000    0.00
   4.490   22.39    1.70   -2.32   0.000   0.200   0.000    0.00
   4.500   21.97    1.50   -2.27   0.000   0.200   0.000    0.00
   4.510   22.34    1.88   -2.27   0.000   0.200   0.000    0.00
   4.520   22.44    1.64   -2.01   0.000   0.200   0.000    0.00
   4.530   22.77    3.22   -1.80   0.000   0.200   0.000    0.00
   4.540   22.83    4.05   -1.33   0.000   0.200   0.000    0.00