! This hub-height wind-speed file was generated by TurbSim (from OpenFAST--128-NOTFOUND) on 23-Aug-2023 at 09:41:11.
!
! The requested statistics for this data were:
!    Mean Total Wind Speed =   20.000 m/s
!    Turbulence Intensity  =   14.420%
!
!   Time  HorSpd  WndDir  VerSpd  HorShr  VerShr  LnVShr  GstSpd
!  (sec)   (m/s)   (deg)   (m/s)     (-)     (-)     (-)   (m/s)
   0.000   23.27    9.18   -2.61   0.000   0.200   0.000    0.00
   0.010   23.08    9.29   -2.67   0.000   0.200   0.000    0.00
   0.020   23.04    7.84   -2.51   0.000   0.200   0.000    0.00
   0.030   22.83    7.73   -2.22   0.000   0.200   0.000    0.00
   0.040   22.61    7.99   -2.41   0.000   0.200   0.000    0.00
   0.050   22.64    6.66   -2.67   0.000   0.200   0.000    0.00
   0.060   22.90    6.39   -2.81   0.000   0.200   0.000    0.00
   0.070   22.88    5.32   -2.36   0.000   0.200   0.000    0.00
   0.080   23.22    4.37   -1.89   0.000   0.200   0.000    0.00
   0.090   23.05    4.74   -1.81   0.000   0.200   0.000    0.00
   0.100   22.78    6.66   -2.25   0.000   0.200   0.000    0.00
   0.110   22.85    7.33   -2.28   0.000   0.200   0.000    0.00
   0.120   22.24    6.85   -1.89   0.000   0.200   0.000    0.00
   0.130   22.21    7.65   -1.64   0.000   0.200   0.000    0.00
   0.140   22.09    6.94   -1.58   0.000   0.200   0.000    0.00
   0.150   22.03    6.51   -1.62   0.000   0.200   0.000    0.00
   0.160   22.53    6.83   -1.65   0.000   0.200   0.000    0.00
   0.170   22.68    6.59   -2.00   0.000   0.200   0.000    0.00
   0.180   22.94    5.82   -2.39   0.000   0.200   0.000    0.00
   0.190   23.05    5.12   -1.81   0.000   0.200   0.000    0.00
   0.200   23.28    5.20   -2.12   0.000   0.200   0.000    0.00
   0.210   22.97    6.60   -2.08   0.000   0.200   0.000    0.00
   0.220   22.66    6.77   -1.96   0.000   0.200   0.000    0.00
   0.230   22.11    5.04   -1.43   0.000   0.200   0.000    0.00
   0.240   22.47    5.29   -1.42   0.000   0.200   0.000    0.00
   0.250   22.65    5.93   -1.40   0.000   0.200   0.000    0.00
   0.260   21.90    5.41   -1.73   0.000   0.200   0.000    0.00
   0.270   22.33    4.58   -1.60   0.000   0.200   0.000    0.00
   0.280   22.63    4.51   -1.09   0.000   0.200   0.000    0.00
   0.290   23.31    4.48   -1.46   0.000   0.200   0.000    0.00
   0.300   23.37    3.74   -1.66   0.000   0.200   0.000    0.00
   0.310   22.78    3.64   -1.45   0.000   0.200   0.000    0.00
   0.320   22.59    4.91   -1.74   0.000   0.200   0.000    0.00
   0.330   22.64    3.35   -1.48   0.000   0.200   0.000    0.00
   0.340   22.71    4.06   -1.40   0.000   0.200   0.000    0.00
   0.350   22.49    4.52   -0.87   0.000   0.200   0.000    0.00
   0.360   22.86    5.50   -0.66   0.000   0.200   0.000    0.00
   0.370   22.90    5.74   -1.23   0.000   0.200   0.000    0.00
   0.380   22.86    5.90   -1.88   0.000   0.200   0.000    0.00
   0.390   22.59    6.38   -1.82   0.000   0.200   0.000    0.00
   0.400   23.77    6.60   -1.89   0.000   0.200   0.000    0.00
   0.410   23.95    5.51   -2.02   0.000   0.200   0.000    0.00
   0.420   23.87    5.23   -1.18   0.000   0.200   0.000    0.00
   0.430   23.43    5.46   -1.55   0.000   0.200   0.000    0.00
   0.440   23.04    4.93   -1.51   0.000   0.200   0.000    0.00
   0.450   22.96    5.20   -1.72   0.000   0.200   0.000    0.00
   0.460   23.19    6.11   -1.99   0.000   0.200   0.000    0.00
   0.470   22.79    7.21   -1.62   0.000   0.200   0.000    0.00
   0.480   22.73    8.41   -1.29   0.000   0.200   0.000    0.00
   0.490   22.85    8.82   -1.41   0.000   0.200   0.000    0.00
   0.500   22.68    9.57   -1.68   0.000   0.200   0.000    0.00
   0.510   22.45    9.58   -1.92   0.000   0.200   0.000    0.00
   0.520   22.60    7.90   -1.97   0.000   0.200   0.000    0.00
   0.530   22.29    9.04   -2.56   0.000   0.200   0.000    0.00
   0.540   22.41    9.17   -2.74   0.000   0.200   0.000    0.00
   0.550   21.76    8.92   -2.92   0.000   0.200   0.000    0.00
   0.560   22.12    8.71   -3.63   0.000   0.200   0.000    0.00
   0.570   22.39    7.40   -4.41   0.000   0.200   0.000    0.00
   0.580   22.11    8.29   -4.43   0.000   0.200   0.000    0.00
   0.590   21.96    9.41   -4.06   0.000   0.200   0.000    0.00
   0.600   21.92    8.25   -3.92   0.000   0.200   0.000    0.00
   0.610   22.59    7.78   -3.91   0.000   0.200   0.000    0.00
   0.620   22.72    7.79   -3.33   0.000   0.200   0.000    0.00
   0.630   22.49    7.95   -2.98   0.000   0.200   0.000    0.00
   0.640   21.89    8.85   -3.24   0.000   0.200   0.000    0.00
   0.650   22.36    9.29   -3.44   0.000   0.200   0.000    0.00
   0.660   22.33    8.45   -3.41   0.000   0.200   0.000    0.00
   0.670   22.54    8.42   -4.08   0.000   0.200   0.000    0.00
   0.680   22.30    8.71   -4.45   0.000   0.200   0.000    0.00
   0.690   22.02    7.96   -4.47   0.000   0.200   0.000    0.00
   0.700   23.00    8.31   -4.36   0.000   0.200   0.000    0.00
   0.710   23.01    8.73   -3.77   0.000   0.200   0.000    0.00
   0.720   22.49    9.20   -4.08   0.000   0.200   0.000    0.00
   0.730   22.51    9.46   -3.23   0.000   0.200   0.000    0.00
   0.740   22.57    8.82   -3.34   0.000   0.200   0.000    0.00
   0.750   23.12    6.57   -3.42   0.000   0.200   0.000    0.00
   0.760   22.49    7.40   -3.93   0.000   0.200   0.000    0.00
   0.770   22.21    8.36   -3.87   0.000   0.200   0.000    0.00
   0.780   22.38    7.82   -3.62   0.000   0.200   0.000    0.00
   0.790   22.26    9.53   -3.27   0.000   0.200   0.000    0.00
   0.800   22.64   10.26   -2.72   0.000   0.200   0.000    0.00
   0.810   21.92   10.51   -2.64   0.000   0.200   0.000    0.00
   0.820   21.76   11.88   -3.24   0.000   0.200   0.000    0.00
   0.830   22.17   11.24   -3.17   0.000   0.200   0.000    0.00
   0.840   22.51   11.79   -2.88   0.000   0.200   0.000    0.00
   0.850   22.77   11.18   -2.75   0.000   0.200   0.000    0.00
   0.860   23.35   10.44   -3.22   0.000   0.200   0.000    0.00
   0.870   22.53   10.40   -3.81   0.000   0.200   0.000    0.00
   0.880   22.78   11.64   -4.16   0.000   0.200   0.000    0.00
   0.890   23.08   11.83   -4.01   0.000   0.200   0.000    0.00
   0.900   22.96   11.54   -3.41   0.000   0.200   0.000    0.00
   0.910   22.82   11.21   -3.49   0.000   0.200   0.000    0.00
   0.920   23.09   10.04   -3.45   0.000   0.200   0.000    0.00
   0.930   23.14    9.52   -4.00   0.000   0.200   0.000    0.00
   0.940   23.38    9.67   -4.10   0.000   0.200   0.000    0.00
   0.950   23.28   11.18   -4.27   0.000   0.200   0.000    0.00
   0.960   22.83   11.57   -4.47   0.000   0.200   0.000    0.00
   0.970   23.77   10.45   -3.50   0.000   0.200   0.000    0.00
   0.980   23.38    9.44   -3.06   0.000   0.200   0.000    0.00
   0.990   23.04    9.98   -2.93   0.000   0.200   0.000    0.00
   1.000   23.45   10.87   -3.17   0.000   0.200   0.000    0.00
   1.010   23.58    9.72   -3.23   0.000   0.200   0.000    0.00
   1.020   23.69    9.82   -3.09   0.000   0.200   0.000    0.00
   1.030   23.19    9.08   -3.02   0.000   0.200   0.000    0.00
   1.040   23.38   10.04   -2.66   0.000   0.200   0.000    0.00
   1.050   23.00   11.14   -2.56   0.000   0.200   0.000    0.00
   1.060   22.80   10.91   -2.91   0.000   0.200   0.000    0.00
   1.070   22.75    8.82   -2.96   0.000   0.200   0.000    0.00
   1.080   22.92    9.12   -2.81   0.000   0.200   0.000    0.00
   1.090   22.58   10.02   -3.41   0.000   0.200   0.000    0.00
   1.100   22.61    9.96   -3.42   0.000   0.200   0.000    0.00
   1.110   22.13    9.93   -3.16   0.000   0.200   0.000    0.00
   1.120   21.81    9.78   -4.10   0.000   0.200   0.000    0.00
   1.130   22.74    9.47   -4.52   0.000   0.200   0.000    0.00
   1.140   22.95   10.24   -4.45   0.000   0.200   0.000    0.00
   1.150   22.93   11.35   -4.25   0.000   0.200   0.000    0.00
   1.160   23.01   11.91   -4.77   0.000   0.200   0.000    0.00
   1.170   22.99   11.85   -4.83   0.000   0.200   0.000    0.00
   1.180   22.87   11.28   -4.58   0.000   0.200   0.000    0.00
   1.190   22.94   10.73   -4.56   0.000   0.200   0.000    0.00
   1.200   22.75   10.09   -4.38   0.000   0.200   0.000    0.00
   1.210   22.02    9.64   -4.35   0.000   0.200   0.000    0.00
   1.220   21.66    8.89   -4.71   0.000   0.200   0.000    0.00
   1.230   21.64    9.57   -4.60   0.000   0.200   0.000    0.00
   1.240   21.49   10.51   -4.25   0.000   0.200   0.000    0.00
   1.250   21.58   12.04   -4.43   0.000   0.200   0.000    0.00
   1.260   21.78   13.14   -4.06   0.000   0.200   0.000    0.00
   1.270   21.55   13.60   -4.16   0.000   0.200   0.000    0.00
   1.280   21.18   12.72   -4.82   0.000   0.200   0.000    0.00
   1.290   20.81   11.16   -4.88   0.000   0.200   0.000    0.00
   1.300   20.85    9.57   -4.45   0.000   0.200   0.000    0.00
   1.310   20.85   11.20   -4.74   0.000   0.200   0.000    0.00
   1.320   20.83   12.04   -4.63   0.000   0.200   0.000    0.00
   1.330   20.95   11.51   -4.71   0.000   0.200   0.000    0.00
   1.340   20.91   11.55   -5.18   0.000   0.200   0.000    0.00
   1.350   21.39   12.00   -4.73   0.000   0.200   0.000    0.00
   1.360   21.52   13.06   -4.46   0.000   0.200   0.000    0.00
   1.370   21.40   12.63   -5.07   0.000   0.200   0.000    0.00
   1.380   21.16   12.08   -4.71   0.000   0.200   0.000    0.00
   1.390   21.44   12.22   -4.98   0.000   0.200   0.000    0.00
   1.400   21.50   12.68   -4.96   0.000   0.200   0.000    0.00
   1.410   20.50   11.61   -4.98   0.000   0.200   0.000    0.00
   1.420   19.97   10.95   -4.91   0.000   0.200   0.000    0.00
   1.430   20.31   11.32   -5.02   0.000   0.200   0.000    0.00
   1.440   20.21    9.68   -5.41   0.000   0.200   0.000    0.00
   1.450   21.25    9.36   -5.73   0.000   0.200   0.000    0.00
   1.460   21.67    8.24   -5.38   0.000   0.200   0.000    0.00
   1.470   21.57    8.41   -5.36   0.000   0.200   0.000    0.00
   1.480   21.37    8.97   -5.49   0.000   0.200   0.000    0.00
   1.490   21.21    9.01   -4.93   0.000   0.200   0.000    0.00
   1.500   20.93    9.22   -4.87   0.000   0.200   0.000    0.00
   1.510   20.87    9.66   -4.87   0.000   0.200   0.000    0.00
   1.520   20.07    8.87   -5.14   0.000   0.200   0.000    0.00
   1.530   20.31    7.20   -4.85   0.000   0.200   0.000    0.00
   1.540   20.19    5.82   -5.39   0.000   0.200   0.000    0.00
   1.550   19.80    5.65   -5.61   0.000   0.200   0.000    0.00
   1.560   19.98    5.90   -5.60   0.000   0.200   0.000    0.00
   1.570   20.03    5.74   -5.33   0.000   0.200   0.000    0.00
   1.580   20.32    6.43   -5.74   0.000   0.200   0.000    0.00
   1.590   20.66    7.45   -5.74   0.000   0.200   0.000    0.00
   1.600   20.66    8.21   -5.91   0.000   0.200   0.000    0.00
   1.610   20.36    7.09   -5.46   0.000   0.200   0.000    0.00
   1.620   19.98    5.61   -5.81   0.000   0.200   0.000    0.00
   1.630   19.80    6.69   -6.49   0.000   0.200   0.000    0.00
   1.640   20.25    7.91   -5.98   0.000   0.200   0.000    0.00
   1.650   20.04    8.33   -5.82   0.000   0.200   0.000    0.00
   1.660   20.01    6.80   -5.98   0.000   0.200   0.000    0.00
   1.670   20.32    6.77   -5.95   0.000   0.200   0.000    0.00
   1.680   20.52    5.79   -5.88   0.000   0.200   0.000    0.00
   1.690   20.01    5.95   -6.32   0.000   0.200   0.000    0.00
   1.700   19.84    3.60   -6.74   0.000   0.200   0.000    0.00
   1.710   19.60    3.42   -6.91   0.000   0.200   0.000    0.00
   1.720   20.06    2.96   -5.78   0.000   0.200   0.000    0.00
   1.730   20.33    3.76   -5.62   0.000   0.200   0.000    0.00
   1.740   19.95    2.86   -5.38   0.000   0.200   0.000    0.00
   1.750   20.25    2.00   -4.69   0.000   0.200   0.000    0.00
   1.760   20.24    2.12   -4.42   0.000   0.200   0.000    0.00
   1.770   20.22    3.56   -4.66   0.000   0.200   0.000    0.00
   1.780   20.52    4.94   -5.28   0.000   0.200   0.000    0.00
   1.790   20.98    4.95   -5.16   0.000   0.200   0.000    0.00
   1.800   20.99    3.16   -5.34   0.000   0.200   0.000    0.00
   1.810   20.96    2.35   -4.93   0.000   0.200   0.000    0.00
   1.820   20.95    4.88   -4.71   0.000   0.200   0.000    0.00
   1.830   21.25    6.15   -5.06   0.000   0.200   0.000    0.00
   1.840   21.10    6.70   -5.21   0.000   0.200   0.000    0.00
   1.850   21.42    7.78   -5.33   0.000   0.200   0.000    0.00
   1.860   21.87    7.38   -5.67   0.000   0.200   0.000    0.00
   1.870   21.38    7.91   -5.47   0.000   0.200   0.000    0.00
   1.880   20.91    7.25   -6.16   0.000   0.200   0.000    0.00
   1.890   21.34    6.95   -5.83   0.000   0.200   0.000    0.00
   1.900   21.56    8.74   -5.31   0.000   0.200   0.000    0.00
   1.910   21.61    8.20   -5.07   0.000   0.200   0.000    0.00
   1.920   22.30    7.56   -4.78   0.000   0.200   0.000    0.00
   1.930   22.15    9.15   -4.55   0.000   0.200   0.000    0.00
   1.940   22.32    9.19   -4.27   0.000   0.200   0.000    0.00
   1.950   22.50    8.46   -3.74   0.000   0.200   0.000    0.00
   1.960   22.21    6.85   -3.41   0.000   0.200   0.000    0.00
   1.970   22.11    8.70   -3.92   0.000   0.200   0.000    0.00
   1.980   22.27    9.78   -3.26   0.000   0.200   0.000    0.00
   1.990   22.63    8.56   -3.51   0.000   0.200   0.000    0.00
   2.000   22.31    8.19   -3.61   0.000   0.200   0.000    0.00
   2.010   21.62    7.29   -4.12   0.000   0.200   0.000    0.00
   2.020   21.94    6.04   -4.46   0.000   0.200   0.000    0.00
   2.030   22.24    6.98   -5.17   0.000   0.200   0.000    0.00
   2.040   22.11    7.77   -4.78   0.000   0.200   0.000    0.00
   2.050   21.78    7.44   -4.83   0.000   0.200   0.000    0.00
   2.060   21.12    5.99   -5.17   0.000   0.200   0.000    0.00
   2.070   21.25    7.89   -5.14   0.000   0.200   0.000    0.00
   2.080   21.58    9.27   -4.79   0.000   0.200   0.000    0.00
   2.090   21.72    8.86   -4.66   0.000   0.200   0.000    0.00
   2.100   21.55    7.79   -4.77   0.000   0.200   0.000    0.00
   2.110   22.02    9.55   -5.22   0.000   0.200   0.000    0.00
   2.120   21.97    9.40   -4.66   0.000   0.200   0.000    0.00
   2.130   22.14    7.54   -5.15   0.000   0.200   0.000    0.00
   2.140   21.74    7.48   -5.47   0.000   0.200   0.000    0.00
   2.150   21.64    9.85   -5.64   0.000   0.200   0.000    0.00
   2.160   21.53    8.73   -5.89   0.000   0.200   0.000    0.00
   2.170   22.00   11.08   -5.61   0.000   0.200   0.000    0.00
   2.180   22.13   11.45   -5.84   0.000   0.200   0.000    0.00
   2.190   21.85   10.36   -6.10   0.000   0.200   0.000    0.00
   2.200   21.70   10.15   -5.82   0.000   0.200   0.000    0.00
   2.210   21.45    9.49   -5.04   0.000   0.200   0.000    0.00
   2.220   22.13    9.77   -5.27   0.000   0.200   0.000    0.00
   2.230   22.62   10.45   -5.62   0.000   0.200   0.000    0.00
   2.240   22.73   11.07   -5.38   0.000   0.200   0.000    0.00
   2.250   22.55   10.14   -5.20   0.000   0.200   0.000    0.00
   2.260   22.28   10.63   -5.65   0.000   0.200   0.000    0.00
   2.270   22.62   11.94   -5.90   0.000   0.200   0.000    0.00
   2.280   22.77   11.40   -6.16   0.000   0.200   0.000    0.00
   2.290   22.71   11.07   -5.97   0.000   0.200   0.000    0.00
   2.300   22.84    9.79   -6.34   0.000   0.200   0.000    0.00
   2.310   22.59    7.31   -7.01   0.000   0.200   0.000    0.00
   2.320   22.47    7.19   -7.06   0.000   0.200   0.000    0.00
   2.330   22.37    8.62   -7.18   0.000   0.200   0.000    0.00
   2.340   22.47   10.30   -6.73   0.000   0.200   0.000    0.00
   2.350   21.82   10.89   -6.61   0.000   0.200   0.000    0.00
   2.360   21.78   11.44   -6.44   0.000   0.200   0.000    0.00
   2.370   21.53   10.91   -6.70   0.000   0.200   0.000    0.00
   2.380   21.90   12.35   -6.13   0.000   0.200   0.000    0.00
   2.390   21.83   12.40   -6.07   0.000   0.200   0.000    0.00
   2.400   21.79   11.87   -6.23   0.000   0.200   0.000    0.00
   2.410   22.29   11.92   -5.65   0.000   0.200   0.000    0.00
   2.420   22.24   12.70   -5.48   0.000   0.200   0.000    0.00
   2.430   22.04   11.32   -5.52   0.000   0.200   0.000    0.00
   2.440   22.26   10.73   -6.29   0.000   0.200   0.000    0.00
   2.450   21.96   10.89   -5.70   0.000   0.200   0.000    0.00
   2.460   21.77   10.49   -6.07   0.000   0.200   0.000    0.00
   2.470   21.56    9.47   -6.15   0.000   0.200   0.000    0.00
   2.480   21.17    8.29   -6.18   0.000   0.200   0.000    0.00
   2.490   20.86    9.20   -5.61   0.000   0.200   0.000    0.00
   2.500   20.86   10.78   -5.91   0.000   0.200   0.000    0.00
   2.510   20.92   12.31   -5.53   0.000   0.200   0.000    0.00
   2.520   21.62   13.65   -5.46   0.000   0.200   0.000    0.00
   2.530   21.58   13.49   -5.91   0.000   0.200   0.000    0.00
   2.540   21.20   12.52   -6.36   0.000   0.200   0.000    0.00
   2.550   21.04   12.64   -6.54   0.000   0.200   0.000    0.00
   2.560   21.30   13.12   -6.30   0.000   0.200   0.000    0.00
   2.570   20.96   11.69   -6.47   0.000   0.200   0.000    0.00
   2.580   21.02   12.05   -5.78   0.000   0.200   0.000    0.00
   2.590   21.00   10.37   -5.69   0.000   0.200   0.000    0.00
   2.600   21.28    9.37   -5.51   0.000   0.200   0.000    0.00
   2.610   21.54    9.03   -5.45   0.000   0.200   0.000    0.00
   2.620   21.78    8.57   -5.15   0.000   0.200   0.000    0.00
   2.630   21.61    7.93   -5.13   0.000   0.200   0.000    0.00
   2.640   22.33    7.54   -5.31   0.000   0.200   0.000    0.00
   2.650   22.53    6.11   -5.11   0.000   0.200   0.000    0.00
   2.660   22.64    6.56   -4.93   0.000   0.200   0.000    0.00
   2.670   22.45    7.45   -5.47   0.000   0.200   0.000    0.00
   2.680   21.99    6.48   -5.68   0.000   0.200   0.000    0.00
   2.690   22.32    8.36   -5.52   0.000   0.200   0.000    0.00
   2.700   22.24    7.48   -5.39   0.000   0.200   0.000    0.00
   2.710   21.73    9.07   -5.23   0.000   0.200   0.000    0.00
   2.720   21.71    8.75   -5.18   0.000   0.200   0.000    0.00
   2.730   22.09    7.06   -5.38   0.000   0.200   0.000    0.00
   2.740   21.87    5.21   -5.60   0.000   0.200   0.000    0.00
   2.750   21.97    5.84   -5.94   0.000   0.200   0.000    0.00
   2.760   21.56    6.80   -5.92   0.000   0.200   0.000    0.00
   2.770   21.71    6.43   -5.61   0.000   0.200   0.000    0.00
   2.780   22.09    6.16   -5.65   0.000   0.200   0.000    0.00
   2.790   22.52    6.33   -6.20   0.000   0.200   0.000    0.00
   2.800   22.64    6.63   -6.00   0.000   0.200   0.000    0.00
   2.810   22.74    6.46   -5.41   0.000   0.200   0.000    0.00
   2.820   22.72    6.36   -5.37   0.000   0.200   0.000    0.00
   2.830   22.73    7.57   -5.66   0.000   0.200   0.000    0.00
   2.840   22.36    7.23   -5.53   0.000   0.200   0.000    0.00
   2.850   22.26    8.16   -5.85   0.000   0.200   0.000    0.00
   2.860   21.79    9.09   -5.18   0.000   0.200   0.000    0.00
   2.870   21.74    7.45   -4.95   0.000   0.200   0.000    0.00
   2.880   21.65    7.40   -5.47   0.000   0.200   0.000    0.00
   2.890   21.49    8.91   -6.15   0.000   0.200   0.000    0.00
   2.900   21.45    9.42   -6.09   0.000   0.200   0.000    0.00
   2.910   21.36    9.87   -6.02   0.000   0.200   0.000    0.00
   2.920   21.00    9.66   -5.81   0.000   0.200   0.000    0.00
   2.930   20.75   10.14   -6.03   0.000   0.200   0.000    0.00
   2.940   20.83    9.62   -5.83   0.000   0.200   0.000    0.00
   2.950   20.95    9.50   -5.85   0.000   0.200   0.000    0.00
   2.960   21.03    8.29   -5.48   0.000   0.200   0.000    0.00
   2.970   21.03    8.91   -5.12   0.000   0.200   0.000    0.00
   2.980   20.43    9.44   -5.09   0.000   0.200   0.000    0.00
   2.990   20.16    8.43   -5.55   0.000   0.200   0.000    0.00
   3.000   20.50    8.69   -5.28   0.000   0.200   0.000    0.00
   3.010   20.76    7.87   -5.12   0.000   0.200   0.000    0.00
   3.020   21.13    7.46   -4.81   0.000   0.200   0.000    0.00
   3.030   21.09    7.58   -4.68   0.000   0.200   0.000    0.00
   3.040   21.08    7.73   -5.01   0.000   0.200   0.000    0.00
   3.050   21.12    6.48   -4.98   0.000   0.200   0.000    0.00
   3.060   20.85    5.65   -5.03   0.000   0.200   0.000    0.00
   3.070   20.81    5.40   -4.58   0.000   0.200   0.000    0.00
   3.080   20.92    5.94   -4.20   0.000   0.200   0.000    0.00
   3.090   20.83    4.74   -4.43   0.000   0.200   0.000    0.00
   3.100   21.27    3.15   -4.19   0.000   0.200   0.000    0.00
   3.110   21.29    3.17   -3.99   0.000   0.200   0.000    0.00
   3.120   20.97    1.57   -3.92   0.000   0.200   0.000    0.00
   3.130   20.82    1.50   -4.25   0.000   0.200   0.000    0.00
   3.140   21.17    2.55   -4.08   0.000   0.200   0.000    0.00
   3.150   21.75    2.70   -4.57   0.000   0.200   0.000    0.00
   3.160   21.86    2.84   -4.43   0.000   0.200   0.000    0.00
   3.170   21.90    3.41   -4.27   0.000   0.200   0.000    0.00
   3.180   21.92    3.45   -4.55   0.000   0.200   0.000    0.00
   3.190   21.88    1.74   -3.79   0.000   0.200   0.000    0.00
   3.200   21.55    2.30   -3.65   0.000   0.200   0.000    0.00
   3.210   21.31    1.33   -3.61   0.000   0.200   0.000    0.00
   3.220   21.65    1.06   -3.42   0.000   0.200   0.000    0.00
   3.230   22.01    1.98   -3.40   0.000   0.200   0.000    0.00
   3.240   21.72    3.49   -3.22   0.000   0.200   0.000    0.00
   3.250   21.53    3.33   -3.26   0.000   0.200   0.000    0.00
   3.260   21.23    3.90   -3.72   0.000   0.200   0.000    0.00
   3.270   21.53    2.65   -3.33   0.000   0.200   0.000    0.00
   3.280   22.11    2.81   -3.39   0.000   0.200   0.000    0.00
   3.290   22.42    3.29   -3.46   0.000   0.200   0.000    0.00
   3.300   22.39    3.54   -3.30   0.000   0.200   0.000    0.00
   3.310   22.35    2.52   -3.41   0.000   0.200   0.000    0.00
   3.320   22.01    2.89   -3.06   0.000   0.200   0.000    0.00
   3.330   22.27    2.77   -3.08   0.000   0.200   0.000    0.00
   3.340   21.89    4.23   -2.96   0.000   0.200   0.000    0.00
   3.350   22.24    4.44   -3.76   0.000   0.200   0.000    0.00
   3.360   22.65    3.98   -3.88   0.000   0.200   0.000    0.00
   3.370   23.29    3.81   -3.76   0.000   0.200   0.000    0.00
   3.380   22.88    3.10   -4.06   0.000   0.200   0.000    0.00
   3.390   22.79    2.93   -3.95   0.000   0.200   0.000    0.00
   3.400   23.12    3.49   -4.48   0.000   0.200   0.000    0.00
   3.410   22.80    2.47   -4.25   0.000   0.200   0.000    0.00
   3.420   22.40    3.06   -4.59   0.000   0.200   0.000    0.00
   3.430   22.13    2.67   -3.74   0.000   0.200   0.000    0.00
   3.440   22.46    2.60   -3.45   0.000   0.200   0.000    0.00
   3.450   22.61    3.05   -3.61   0.000   0.200   0.000    0.00
   3.460   22.72    3.01   -3.51   0.000   0.200   0.000    0.00
   3.470   22.74    2.68   -3.67   0.000   0.200   0.000    0.00
   3.480   22.44    1.97   -3.58   0.000   0.200   0.000    0.00
   3.490   22.45    3.79   -3.71   0.000   0.200   0.000    0.00
   3.500   22.72    3.53   -4.42   0.000   0.200   0.000    0.00
   3.510   23.14    1.87   -4.21   0.000   0.200   0.000    0.00
   3.520   23.67    1.79   -4.03   0.000   0.200   0.000    0.00
   3.530   23.05    1.37   -4.72   0.000   0.200   0.000    0.00
   3.540   22.47    0.51   -4.58   0.000   0.200   0.000    0.00
   3.550   22.75    1.23   -4.32   0.000   0.200   0.000    0.00
   3.560   22.92    2.74   -4.23   0.000   0.200   0.000    0.00
   3.570   23.88    2.25   -4.54   0.000   0.200   0.000    0.00
   3.580   23.39    1.96   -5.24   0.000   0.200   0.000    0.00
   3.590   23.29    2.22   -4.84   0.000   0.200   0.000    0.00
   3.600   23.46    1.76   -5.20   0.000   0.200   0.000    0.00
   3.610   23.46    1.70   -4.82   0.000   0.200   0.000    0.00
   3.620   22.89    2.26   -4.20   0.000   0.200   0.000    0.00
   3.630   22.81    2.21   -4.90   0.000   0.200   0.000    0.00
   3.640   23.36    1.53   -5.03   0.000   0.200   0.000    0.00
   3.650   23.66    2.51   -5.40   0.000   0.200   0.000    0.00
   3.660   23.62    2.24   -5.38   0.000   0.200   0.000    0.00
   3.670   23.35    3.79   -5.89   0.000   0.200   0.000    0.00
   3.680   23.02    3.52   -5.63   0.000   0.200   0.000    0.00
   3.690   22.35    3.32   -6.27   0.000   0.200   0.000    0.00
   3.700   22.61    4.61   -5.97   0.000   0.200   0.000    0.00
   3.710   22.24    5.16   -6.43   0.000   0.200   0.000    0.00
   3.720   22.02    4.48   -7.32   0.000   0.200   0.000    0.00
   3.730   22.07    5.41   -7.17   0.000   0.200   0.000    0.00
   3.740   21.63    8.03   -7.08   0.000   0.200   0.000    0.00
   3.750   21.68    8.19   -7.16   0.000   0.200   0.000    0.00
   3.760   21.42    7.55   -7.56   0.000   0.200   0.000    0.00
   3.770   21.43    8.35   -7.33   0.000   0.200   0.000    0.00
   3.780   20.98    8.23   -6.69   0.000   0.200   0.000    0.00
   3.790   21.57    7.65   -6.70   0.000   0.200   0.000    0.00
   3.800   21.34    7.32   -6.44   0.000   0.200   0.000    0.00
   3.810   21.44    6.05   -6.33   0.000   0.200   0.000    0.00
   3.820   21.73    6.66   -6.11   0.000   0.200   0.000    0.00
   3.830   22.08    7.35   -6.57   0.000   0.200   0.000    0.00
   3.840   22.46    7.27   -6.60   0.000   0.200   0.000    0.00
   3.850   22.45    7.11   -6.37   0.000   0.200   0.000    0.00
   3.860   22.53    7.58   -6.69   0.000   0.200   0.000    0.00
   3.870   22.23    8.01   -6.07   0.000   0.200   0.000    0.00
   3.880   22.87    7.14   -6.16   0.000   0.200   0.000    0.00
   3.890   23.03    8.26   -6.34   0.000   0.200   0.000    0.00
   3.900   23.25    8.44   -6.95   0.000   0.200   0.000    0.00
   3.910   22.91    8.65   -6.49   0.000   0.200   0.000    0.00
   3.920   22.65    8.40   -6.09   0.000   0.200   0.000    0.00
   3.930   22.68    9.88   -6.11   0.000   0.200   0.000    0.00
   3.940   22.60    9.60   -5.53   0.000   0.200   0.000    0.00
   3.950   22.47   10.85   -4.78   0.000   0.200   0.000    0.00
   3.960   22.20   10.78   -5.00   0.000   0.200   0.000    0.00
   3.970   22.26   10.58   -5.49   0.000   0.200   0.000    0.00
   3.980   22.10   10.84   -5.08   0.000   0.200   0.000    0.00
   3.990   22.38    9.31   -5.48   0.000   0.200   0.000    0.00
   4.000   22.57    8.76   -5.22   0.000   0.200   0.000    0.00
   4.010   22.79    8.18   -5.53   0.000   0.200   0.000    0.00
   4.020   23.33    9.42   -5.26   0.000   0.200   0.000    0.00
   4.030   22.86    8.95   -5.57   0.000   0.200   0.000    0.00
   4.040   22.63    8.77   -5.75   0.000   0.200   0.000    0.00
   4.050   22.29    8.94   -5.57   0.000   0.200   0.000    0.00
   4.060   22.56    7.89   -5.78   0.000   0.200   0.000    0.00
   4.070   22.79    8.59   -5.59   0.000   0.200   0.000    0.00
   4.080   22.43    9.92   -4.93   0.000   0.200   0.000    0.00
   4.090   22.86    9.66   -5.04   0.000   0.200   0.000    0.00
   4.100   22.68   10.16   -5.36   0.000   0.200   0.000    0.00
   4.110   23.13   10.48   -5.51   0.000   0.200   0.000    0.00
   4.120   22.92   10.76   -5.06   0.000   0.200   0.000    0.00
   4.130   22.88   11.45   -5.10   0.000   0.200   0.000    0.00
   4.140   22.57   12.79   -5.64   0.000   0.200   0.000    0.00
   4.150   22.70   11.18   -5.50   0.000   0.200   0.000    0.00
   4.160   22.91    9.79   -5.29   0.000   0.200   0.000    0.00
   4.170   22.99    9.66   -4.95   0.000   0.200   0.000    0.00
   4.180   22.10   10.74   -5.02   0.000   0.200   0.000    0.00
   4.190   22.38   10.34   -5.11   0.000   0.200   0.000    0.00
   4.200   22.71   11.20   -5.73   0.000   0.200   0.000    0.00
   4.210   23.05   11.02   -5.77   0.000   0.200   0.000    0.00
   4.220   23.26    9.19   -4.99   0.000   0.200   0.000    0.00
   4.230   23.25    9.67   -4.16   0.000   0.200   0.000    0.00
   4.240   23.01    8.83   -4.43   0.000   0.200   0.000    0.00
   4.250   22.80    8.20   -4.80   0.000   0.200   0.000    0.00
   4.260   22.50    8.77   -4.65   0.000   0.200   0.000    0.00
   4.270   22.62   10.48   -4.90   0.000   0.200   0.000    0.00
   4.280   22.40   10.06   -4.82   0.000   0.200   0.000    0.00
   4.290   22.21    9.52   -4.83   0.000   0.200   0.000    0.00
   4.300   21.90   10.25   -4.61   0.000   0.200   0.000    0.00
   4.310   22.55   10.14   -5.00   0.000   0.200   0.000    0.00
   4.320   22.23   10.65   -4.87   0.000   0.200   0.000    0.00
   4.330   22.23    9.80   -5.09   0.000   0.200   0.000    0.00
   4.340   21.79    8.77   -5.14   0.000   0.200   0.000    0.00
   4.350   21.70    9.45   -4.97   0.000   0.200   0.000    0.00
   4.360   21.80    9.16   -4.66   0.000   0.200   0.000    0.00
   4.370   21.81    5.69   -4.44   0.000   0.200   0.000    0.00
   4.380   22.05    6.93   -4.48   0.000   0.200   0.000    0.00
   4.390   22.11    6.51   -4.56   0.000   0.200   0.000    0.00
   4.400   22.09    5.56   -4.71   0.000   0.200   0.000    0.00
   4.410   21.98    4.98   -5.07   0.000   0.200   0.000    0.00
   4.420   22.50    6.68   -5.13   0.000   0.200   0.000    0.00
   4.430   22.51    7.11   -5.21   0.000   0.200   0.000    0.00
   4.440   22.42    6.14   -5.61   0.000   0.200   0.000    0.00
   4.450   22.32    4.75   -5.54   0.000   0.200   0.000    0.00
   4.460   22.79    3.98   -5.41   0.000   0.200   0.000    0.00
   4.470   22.41    3.44   -4.83   0.000   0.200   0.000    0.00
   4.480   21.52    2.43   -4.77   0.000   0.200   0.000    0.00
   4.490   21.72    2.11   -4.82   0.000   0.200   0.000    0.00
   4.500   21.88    3.70   -4.67   0.000   0.200   0.000    0.00
   4.510   21.62    5.00   -3.95   0.000   0.200   0.000    0.00
   4.520   21.06    4.17   -3.76   0.000   0.200   0.000    0.00
   4.530   21.21    1.60   -3.90   0.000   0.200   0.000    0.00
   4.540   20.99   -0.57   -4.34   0.000   0.200   0.000    0.00