! This hub-height wind-speed file was generated by TurbSim (from OpenFAST--128-NOTFOUND) on 23-Aug-2023 at 09:41:11.
!
! The requested statistics for this data were:
!    Mean Total Wind Speed =   20.000 m/s
!    Turbulence Intensity  =   14.420%
!
!   Time  HorSpd  WndDir  VerSpd  HorShr  VerShr  LnVShr  GstSpd
!  (sec)   (m/s)   (deg)   (m/s)     (-)     (-)     (-)   (m/s)
   0.000   20.70   -7.89   -3.60   0.000   0.200   0.000    0.00
   0.010   20.57   -6.09   -3.53   0.000   0.200   0.000    0.00
   0.020   19.93   -6.57   -3.10   0.000   0.200   0.000    0.00
   0.030   19.85   -5.22   -3.12   0.000   0.200   0.000    0.00
   0.040   20.22   -4.87   -2.65   0.000   0.200   0.000    0.00
   0.050   20.04   -4.24   -3.33   0.000   0.200   0.000    0.00
   0.060   19.94   -3.71   -3.60   0.000   0.200   0.000    0.00
   0.070   20.12   -6.13   -3.35   0.000   0.200   0.000    0.00
   0.080   20.64   -6.06   -3.71   0.000   0.200   0.000    0.00
   0.090   21.35   -4.95   -3.51   0.000   0.200   0.000    0.00
   0.100   21.53   -5.33   -3.44   0.000   0.200   0.000    0.00
   0.110   21.11   -6.27   -2.79   0.000   0.200   0.000    0.00
   0.120   20.96   -7.00   -2.53   0.000   0.200   0.000    0.00
   0.130   21.24   -7.07   -2.07   0.000   0.200   0.000    0.00
   0.140   20.63   -7.49   -1.93   0.000   0.200   0.000    0.00
   0.150   19.90   -6.81   -2.36   0.000   0.200   0.000    0.00
   0.160   19.90   -6.77   -2.60   0.000   0.200   0.000    0.00
   0.170   19.39   -6.75   -2.96   0.000   0.200   0.000    0.00
   0.180   19.38   -7.82   -2.98   0.000   0.200   0.000    0.00
   0.190   20.05   -8.25   -2.51   0.000   0.200   0.000    0.00
   0.200   20.01   -8.53   -2.49   0.000   0.200   0.000    0.00
   0.210   20.38   -8.67   -3.39   0.000   0.200   0.000    0.00
   0.220   19.95   -8.94   -3.92   0.000   0.200   0.000    0.00
   0.230   19.42   -5.53   -3.67   0.000   0.200   0.000    0.00
   0.240   20.07   -7.27   -3.06   0.000   0.200   0.000    0.00
   0.250   19.80   -6.37   -2.97   0.000   0.200   0.000    0.00
   0.260   19.94   -5.09   -3.47   0.000   0.200   0.000    0.00
   0.270   19.40   -7.21   -3.31   0.000   0.200   0.000    0.00
   0.280   19.23   -5.94   -3.21   0.000   0.200   0.000    0.00
   0.290   19.47   -6.69   -3.32   0.000   0.200   0.000    0.00
   0.300   19.56   -6.74   -3.79   0.000   0.200   0.000    0.00
   0.310   19.15   -6.19   -3.68   0.000   0.200   0.000    0.00
   0.320   18.74   -8.20   -3.05   0.000   0.200   0.000    0.00
   0.330   19.36   -7.45   -2.70   0.000   0.200   0.000    0.00
   0.340   19.25   -7.51   -3.27   0.000   0.200   0.000    0.00
   0.350   19.17   -9.33   -2.99   0.000   0.200   0.000    0.00
   0.360   19.19   -9.25   -3.13   0.000   0.200   0.000    0.00
   0.370   19.34   -9.38   -2.77   0.000   0.200   0.000    0.00
   0.380   19.25  -10.42   -3.26   0.000   0.200   0.000    0.00
   0.390   19.65  -11.37   -2.81   0.000   0.200   0.000    0.00
   0.400   19.61  -11.80   -3.08   0.000   0.200   0.000    0.00
   0.410   19.11  -12.14   -2.61   0.000   0.200   0.000    0.00
   0.420   19.40  -11.48   -2.95   0.000   0.200   0.000    0.00
   0.430   19.34  -11.12   -2.64   0.000   0.200   0.000    0.00
   0.440   19.85   -9.99   -2.80   0.000   0.200   0.000    0.00
   0.450   20.39   -9.93   -2.78   0.000   0.200   0.000    0.00
   0.460   20.73   -8.65   -2.67   0.000   0.200   0.000    0.00
   0.470   20.57   -8.22   -2.76   0.000   0.200   0.000    0.00
   0.480   20.19   -7.55   -2.67   0.000   0.200   0.000    0.00
   0.490   20.45   -5.78   -2.48   0.000   0.200   0.000    0.00
   0.500   20.95   -7.96   -2.50   0.000   0.200   0.000    0.00
   0.510   21.22   -7.14   -2.55   0.000   0.200   0.000    0.00
   0.520   20.94   -7.81   -2.61   0.000   0.200   0.000    0.00
   0.530   21.06   -6.00   -2.25   0.000   0.200   0.000    0.00
   0.540   20.66   -6.86   -2.38   0.000   0.200   0.000    0.00
   0.550   20.18   -7.89   -2.63   0.000   0.200   0.000    0.00
   0.560   20.57   -6.76   -2.32   0.000   0.200   0.000    0.00
   0.570   20.75   -6.70   -2.33   0.000   0.200   0.000    0.00
   0.580   20.24   -7.14   -3.06   0.000   0.200   0.000    0.00
   0.590   20.58   -7.99   -2.71   0.000   0.200   0.000    0.00
   0.600   20.69   -9.34   -2.75   0.000   0.200   0.000    0.00
   0.610   21.51   -8.71   -3.20   0.000   0.200   0.000    0.00
   0.620   21.88   -7.04   -3.15   0.000   0.200   0.000    0.00
   0.630   21.90   -7.09   -2.87   0.000   0.200   0.000    0.00
   0.640   21.94   -6.83   -2.62   0.000   0.200   0.000    0.00
   0.650   22.12   -8.45   -2.67   0.000   0.200   0.000    0.00
   0.660   21.68   -9.05   -3.01   0.000   0.200   0.000    0.00
   0.670   21.80   -8.37   -2.62   0.000   0.200   0.000    0.00
   0.680   22.21   -7.30   -2.74   0.000   0.200   0.000    0.00
   0.690   22.01   -6.98   -3.29   0.000   0.200   0.000    0.00
   0.700   22.16   -6.57   -3.68   0.000   0.200   0.000    0.00
   0.710   22.39   -6.65   -3.45   0.000   0.200   0.000    0.00
   0.720   22.13   -4.48   -3.06   0.000   0.200   0.000    0.00
   0.730   21.92   -4.53   -2.76   0.000   0.200   0.000    0.00
   0.740   21.75   -3.93   -2.16   0.000   0.200   0.000    0.00
   0.750   21.60   -3.68   -1.74   0.000   0.200   0.000    0.00
   0.760   21.25   -2.93   -2.01   0.000   0.200   0.000    0.00
   0.770   21.54   -2.48   -2.03   0.000   0.200   0.000    0.00
   0.780   21.54   -2.87   -1.66   0.000   0.200   0.000    0.00
   0.790   21.32   -4.36   -1.46   0.000   0.200   0.000    0.00
   0.800   21.32   -6.83   -1.24   0.000   0.200   0.000    0.00
   0.810   20.82   -8.01   -1.05   0.000   0.200   0.000    0.00
   0.820   21.10   -7.30   -1.41   0.000   0.200   0.000    0.00
   0.830   21.41   -5.85   -1.47   0.000   0.200   0.000    0.00
   0.840   21.37   -5.40   -1.15   0.000   0.200   0.000    0.00
   0.850   22.19   -3.90   -1.39   0.000   0.200   0.000    0.00
   0.860   22.01   -4.16   -1.58   0.000   0.200   0.000    0.00
   0.870   22.10   -3.49   -1.93   0.000   0.200   0.000    0.00
   0.880   21.73   -5.97   -2.21   0.000   0.200   0.000    0.00
   0.890   22.20   -6.71   -2.24   0.000   0.200   0.000    0.00
   0.900   22.12   -4.86   -2.46   0.000   0.200   0.000    0.00
   0.910   21.96   -4.58   -2.28   0.000   0.200   0.000    0.00
   0.920   21.53   -5.58   -2.36   0.000   0.200   0.000    0.00
   0.930   21.37   -4.51   -3.09   0.000   0.200   0.000    0.00
   0.940   21.58   -4.77   -2.54   0.000   0.200   0.000    0.00
   0.950   20.57   -4.71   -3.39   0.000   0.200   0.000    0.00
   0.960   20.72   -3.99   -3.62   0.000   0.200   0.000    0.00
   0.970   20.61   -4.29   -4.09   0.000   0.200   0.000    0.00
   0.980   21.18   -5.28   -4.29   0.000   0.200   0.000    0.00
   0.990   20.77   -4.71   -3.83   0.000   0.200   0.000    0.00
   1.000   20.23   -3.81   -3.71   0.000   0.200   0.000    0.00
   1.010   20.26   -2.07   -4.05   0.000   0.200   0.000    0.00
   1.020   19.98   -0.19   -4.74   0.000   0.200   0.000    0.00
   1.030   20.09    1.24   -4.58   0.000   0.200   0.000    0.00
   1.040   20.53    1.47   -4.63   0.000   0.200   0.000    0.00
   1.050   20.51    1.61   -4.86   0.000   0.200   0.000    0.00
   1.060   20.59    3.60   -3.82   0.000   0.200   0.000    0.00
   1.070   21.31    5.24   -3.92   0.000   0.200   0.000    0.00
   1.080   20.84    3.32   -4.58   0.000   0.200   0.000    0.00
   1.090   21.14    3.55   -4.60   0.000   0.200   0.000    0.00
   1.100   21.07    3.66   -4.87   0.000   0.200   0.000    0.00
   1.110   21.34    2.67   -4.81   0.000   0.200   0.000    0.00
   1.120   21.26    2.57   -4.61   0.000   0.200   0.000    0.00
   1.130   21.34    2.54   -4.18   0.000   0.200   0.000    0.00
   1.140   21.37    0.52   -4.34   0.000   0.200   0.000    0.00
   1.150   21.52    0.18   -4.56   0.000   0.200   0.000    0.00
   1.160   21.33    2.83   -4.43   0.000   0.200   0.000    0.00
   1.170   21.93    2.73   -3.94   0.000   0.200   0.000    0.00
   1.180   21.96    1.29   -3.96   0.000   0.200   0.000    0.00
   1.190   21.15    1.13   -3.81   0.000   0.200   0.000    0.00
   1.200   21.23    1.34   -4.12   0.000   0.200   0.000    0.00
   1.210   21.38    1.50   -4.40   0.000   0.200   0.000    0.00
   1.220   21.63    0.13   -4.43   0.000   0.200   0.000    0.00
   1.230   21.97   -2.02   -4.43   0.000   0.200   0.000    0.00
   1.240   21.83   -3.15   -4.47   0.000   0.200   0.000    0.00
   1.250   22.30   -4.20   -3.86   0.000   0.200   0.000    0.00
   1.260   22.11   -4.10   -3.27   0.000   0.200   0.000    0.00
   1.270   21.99   -4.76   -3.37   0.000   0.200   0.000    0.00
   1.280   22.11   -4.17   -3.14   0.000   0.200   0.000    0.00
   1.290   22.34   -5.64   -3.53   0.000   0.200   0.000    0.00
   1.300   22.33   -6.81   -3.36   0.000   0.200   0.000    0.00
   1.310   21.54   -6.38   -2.77   0.000   0.200   0.000    0.00
   1.320   21.49   -5.61   -3.63   0.000   0.200   0.000    0.00
   1.330   21.78   -5.10   -3.52   0.000   0.200   0.000    0.00
   1.340   21.90   -5.88   -4.06   0.000   0.200   0.000    0.00
   1.350   21.88   -5.87   -3.77   0.000   0.200   0.000    0.00
   1.360   21.71   -5.70   -3.57   0.000   0.200   0.000    0.00
   1.370   21.09   -6.26   -2.79   0.000   0.200   0.000    0.00
   1.380   21.61   -5.88   -3.00   0.000   0.200   0.000    0.00
   1.390   21.59   -6.80   -3.13   0.000   0.200   0.000    0.00
   1.400   21.58   -6.81   -3.12   0.000   0.200   0.000    0.00
   1.410   21.67   -6.84   -3.02   0.000   0.200   0.000    0.00
   1.420   21.82   -6.44   -3.20   0.000   0.200   0.000    0.00
   1.430   21.96   -7.78   -3.04   0.000   0.200   0.000    0.00
   1.440   21.40   -7.70   -3.28   0.000   0.200   0.000    0.00
   1.450   20.80   -7.65   -3.40   0.000   0.200   0.000    0.00
   1.460   20.94   -8.17   -3.47   0.000   0.200   0.000    0.00
   1.470   21.60   -7.58   -3.37   0.000   0.200   0.000    0.00
   1.480   21.72   -8.30   -3.51   0.000   0.200   0.000    0.00
   1.490   21.41   -9.45   -3.41   0.000   0.200   0.000    0.00
   1.500   21.80   -9.60   -4.17   0.000   0.200   0.000    0.00
   1.510   21.41   -8.16   -3.71   0.000   0.200   0.000    0.00
   1.520   21.38   -8.40   -4.06   0.000   0.200   0.000    0.00
   1.530   21.02   -9.15   -4.19   0.000   0.200   0.000    0.00
   1.540   21.44   -8.75   -4.30   0.000   0.200   0.000    0.00
   1.550   21.36   -8.64   -4.49   0.000   0.200   0.000    0.00
   1.560   21.12   -8.45   -4.39   0.000   0.200   0.000    0.00
   1.570   20.91   -7.61   -4.77   0.000   0.200   0.000    0.00
   1.580   20.95   -9.93   -4.41   0.000   0.200   0.000    0.00
   1.590   20.81  -10.87   -4.36   0.000   0.200   0.000    0.00
   1.600   20.42   -9.55   -4.08   0.000   0.200   0.000    0.00
   1.610   20.66   -8.76   -4.24   0.000   0.200   0.000    0.00
   1.620   21.03   -9.26   -4.43   0.000   0.200   0.000    0.00
   1.630   20.44  -10.60   -4.64   0.000   0.200   0.000    0.00
   1.640   20.11   -9.02   -5.14   0.000   0.200   0.000    0.00
   1.650   19.85   -9.02   -4.94   0.000   0.200   0.000    0.00
   1.660   20.43   -8.51   -5.18   0.000   0.200   0.000    0.00
   1.670   20.46  -10.02   -5.32   0.000   0.200   0.000    0.00
   1.680   21.00  -10.96   -5.00   0.000   0.200   0.000    0.00
   1.690   21.09  -11.58   -4.59   0.000   0.200   0.000    0.00
   1.700   21.58  -11.27   -4.50   0.000   0.200   0.000    0.00
   1.710   21.95  -11.85   -4.66   0.000   0.200   0.000    0.00
   1.720   22.11  -13.11   -5.03   0.000   0.200   0.000    0.00
   1.730   22.02  -13.07   -4.77   0.000   0.200   0.000    0.00
   1.740   22.40  -13.90   -4.85   0.000   0.200   0.000    0.00
   1.750   22.02  -14.43   -4.67   0.000   0.200   0.000    0.00
   1.760   22.34  -13.60   -4.87   0.000   0.200   0.000    0.00
   1.770   22.11  -14.62   -4.60   0.000   0.200   0.000    0.00
   1.780   22.67  -14.98   -4.31   0.000   0.200   0.000    0.00
   1.790   22.89  -15.51   -4.93   0.000   0.200   0.000    0.00
   1.800   22.76  -15.08   -5.23   0.000   0.200   0.000    0.00
   1.810   22.91  -15.84   -5.50   0.000   0.200   0.000    0.00
   1.820   22.69  -17.34   -5.66   0.000   0.200   0.000    0.00
   1.830   22.35  -16.56   -5.36   0.000   0.200   0.000    0.00
   1.840   22.91  -15.87   -5.48   0.000   0.200   0.000    0.00
   1.850   23.48  -15.43   -5.34   0.000   0.200   0.000    0.00
   1.860   23.46  -15.39   -5.58   0.000   0.200   0.000    0.00
   1.870   22.86  -15.85   -5.23   0.000   0.200   0.000    0.00
   1.880   22.19  -15.51   -3.93   0.000   0.200   0.000    0.00
   1.890   22.12  -15.14   -4.23   0.000   0.200   0.000    0.00
   1.900   21.51  -14.84   -4.82   0.000   0.200   0.000    0.00
   1.910   21.35  -14.56   -4.52   0.000   0.200   0.000    0.00
   1.920   21.17  -14.66   -4.84   0.000   0.200   0.000    0.00
   1.930   20.74  -15.50   -4.57   0.000   0.200   0.000    0.00
   1.940   20.75  -14.89   -5.18   0.000   0.200   0.000    0.00
   1.950   21.27  -16.31   -5.41   0.000   0.200   0.000    0.00
   1.960   21.29  -15.35   -5.61   0.000   0.200   0.000    0.00
   1.970   21.29  -15.15   -5.77   0.000   0.200   0.000    0.00
   1.980   21.15  -13.59   -5.29   0.000   0.200   0.000    0.00
   1.990   20.83  -13.34   -4.65   0.000   0.200   0.000    0.00
   2.000   20.75  -14.25   -4.33   0.000   0.200   0.000    0.00
   2.010   21.32  -14.42   -4.84   0.000   0.200   0.000    0.00
   2.020   21.13  -13.61   -5.21   0.000   0.200   0.000    0.00
   2.030   20.97  -13.31   -5.49   0.000   0.200   0.000    0.00
   2.040   21.27  -13.35   -5.73   0.000   0.200   0.000    0.00
   2.050   21.66  -14.46   -5.32   0.000   0.200   0.000    0.00
   2.060   21.39  -12.90   -5.24   0.000   0.200   0.000    0.00
   2.070   21.27  -12.77   -5.46   0.000   0.200   0.000    0.00
   2.080   21.06  -12.14   -5.23   0.000   0.200   0.000    0.00
   2.090   20.83  -13.81   -5.33   0.000   0.200   0.000    0.00
   2.100   21.33  -13.67   -5.46   0.000   0.200   0.000    0.00
   2.110   21.43  -14.65   -5.63   0.000   0.200   0.000    0.00
   2.120   21.33  -15.73   -6.18   0.000   0.200   0.000    0.00
   2.130   20.98  -16.31   -6.30   0.000   0.200   0.000    0.00
   2.140   20.43  -14.34   -5.18   0.000   0.200   0.000    0.00
   2.150   20.33  -13.97   -5.10   0.000   0.200   0.000    0.00
   2.160   20.25  -14.30   -5.66   0.000   0.200   0.000    0.00
   2.170   20.07  -12.14   -5.05   0.000   0.200   0.000    0.00
   2.180   19.87  -11.49   -4.91   0.000   0.200   0.000    0.00
   2.190   20.69  -12.58   -5.49   0.000   0.200   0.000    0.00
   2.200   20.53  -12.37   -5.67   0.000   0.200   0.000    0.00
   2.210   20.80  -12.85   -5.65   0.000   0.200   0.000    0.00
   2.220   21.05  -12.10   -5.58   0.000   0.200   0.000    0.00
   2.230   21.04  -12.59   -5.66   0.000   0.200   0.000    0.00
   2.240   20.60  -13.69   -5.74   0.000   0.200   0.000    0.00
   2.250   20.46  -13.93   -5.38   0.000   0.200   0.000    0.00
   2.260   20.27  -13.92   -4.79   0.000   0.200   0.000    0.00
   2.270   20.45  -14.80   -4.52   0.000   0.200   0.000    0.00
   2.280   20.74  -16.82   -4.52   0.000   0.200   0.000    0.00
   2.290   20.77  -16.67   -4.62   0.000   0.200   0.000    0.00
   2.300   20.65  -16.87   -5.18   0.000   0.200   0.000    0.00
   2.310   20.47  -16.95   -5.29   0.000   0.200   0.000    0.00
   2.320   20.58  -16.78   -5.41   0.000   0.200   0.000    0.00
   2.330   20.87  -16.51   -5.37   0.000   0.200   0.000    0.00
   2.340   20.95  -17.47   -5.57   0.000   0.200   0.000    0.00
   2.350   21.03  -17.91   -6.26   0.000   0.200   0.000    0.00
   2.360   20.61  -16.54   -6.07   0.000   0.200   0.000    0.00
   2.370   20.63  -16.13   -5.69   0.000   0.200   0.000    0.00
   2.380   20.86  -17.21   -5.55   0.000   0.200   0.000    0.00
   2.390   21.07  -16.89   -5.12   0.000   0.200   0.000    0.00
   2.400   20.82  -15.83   -5.05   0.000   0.200   0.000    0.00
   2.410   20.46  -15.85   -4.94   0.000   0.200   0.000    0.00
   2.420   20.93  -15.92   -4.90   0.000   0.200   0.000    0.00
   2.430   20.86  -15.18   -5.55   0.000   0.200   0.000    0.00
   2.440   21.38  -15.36   -4.98   0.000   0.200   0.000    0.00
   2.450   21.87  -13.77   -5.33   0.000   0.200   0.000    0.00
   2.460   21.49  -13.88   -5.42   0.000   0.200   0.000    0.00
   2.470   21.69  -14.30   -5.40   0.000   0.200   0.000    0.00
   2.480   21.57  -14.97   -5.40   0.000   0.200   0.000    0.00
   2.490   21.18  -15.91   -4.74   0.000   0.200   0.000    0.00
   2.500   21.02  -15.48   -4.62   0.000   0.200   0.000    0.00
   2.510   20.82  -14.74   -4.90   0.000   0.200   0.000    0.00
   2.520   21.09  -12.39   -4.53   0.000   0.200   0.000    0.00
   2.530   21.48  -13.55   -4.80   0.000   0.200   0.000    0.00
   2.540   21.50  -12.80   -5.08   0.000   0.200   0.000    0.00
   2.550   21.79  -12.13   -4.69   0.000   0.200   0.000    0.00
   2.560   21.96  -11.84   -4.18   0.000   0.200   0.000    0.00
   2.570   21.87  -13.71   -3.79   0.000   0.200   0.000    0.00
   2.580   21.84  -13.72   -3.89   0.000   0.200   0.000    0.00
   2.590   22.29  -13.94   -4.24   0.000   0.200   0.000    0.00
   2.600   22.47  -14.09   -4.20   0.000   0.200   0.000    0.00
   2.610   21.67  -13.19   -4.65   0.000   0.200   0.000    0.00
   2.620   21.88  -12.62   -4.41   0.000   0.200   0.000    0.00
   2.630   22.04  -13.05   -4.64   0.000   0.200   0.000    0.00
   2.640   22.49  -11.67   -4.63   0.000   0.200   0.000    0.00
   2.650   23.36  -11.94   -4.98   0.000   0.200   0.000    0.00
   2.660   22.83  -10.91   -5.56   0.000   0.200   0.000    0.00
   2.670   22.70  -10.71   -5.92   0.000   0.200   0.000    0.00
   2.680   22.51  -11.88   -6.17   0.000   0.200   0.000    0.00
   2.690   22.55  -12.95   -6.13   0.000   0.200   0.000    0.00
   2.700   22.70  -12.63   -5.67   0.000   0.200   0.000    0.00
   2.710   22.42  -11.98   -5.28   0.000   0.200   0.000    0.00
   2.720   22.76  -12.43   -5.21   0.000   0.200   0.000    0.00
   2.730   22.82  -11.93   -5.28   0.000   0.200   0.000    0.00
   2.740   22.46  -11.76   -5.29   0.000   0.200   0.000    0.00
   2.750   22.61  -11.42   -5.29   0.000   0.200   0.000    0.00
   2.760   22.13  -10.97   -5.40   0.000   0.200   0.000    0.00
   2.770   21.75  -12.17   -5.40   0.000   0.200   0.000    0.00
   2.780   21.67  -12.25   -4.68   0.000   0.200   0.000    0.00
   2.790   21.73  -11.63   -4.38   0.000   0.200   0.000    0.00
   2.800   21.70  -12.61   -4.92   0.000   0.200   0.000    0.00
   2.810   21.30  -12.41   -4.61   0.000   0.200   0.000    0.00
   2.820   21.35  -12.18   -4.59   0.000   0.200   0.000    0.00
   2.830   21.59  -12.69   -4.77   0.000   0.200   0.000    0.00
   2.840   21.84  -13.45   -5.20   0.000   0.200   0.000    0.00
   2.850   22.43  -14.38   -5.25   0.000   0.200   0.000    0.00
   2.860   21.92  -13.36   -5.23   0.000   0.200   0.000    0.00
   2.870   21.87  -13.32   -5.45   0.000   0.200   0.000    0.00
   2.880   21.56  -12.56   -5.27   0.000   0.200   0.000    0.00
   2.890   21.33  -13.36   -5.17   0.000   0.200   0.000    0.00
   2.900   20.84  -13.26   -5.14   0.000   0.200   0.000    0.00
   2.910   20.80  -12.81   -5.30   0.000   0.200   0.000    0.00
   2.920   20.50  -13.98   -5.32   0.000   0.200   0.000    0.00
   2.930   20.17  -13.90   -5.65   0.000   0.200   0.000    0.00
   2.940   20.50  -14.13   -6.17   0.000   0.200   0.000    0.00
   2.950   20.87  -12.35   -6.12   0.000   0.200   0.000    0.00
   2.960   20.68  -13.09   -5.99   0.000   0.200   0.000    0.00
   2.970   20.50  -12.55   -5.74   0.000   0.200   0.000    0.00
   2.980   20.68  -12.09   -5.23   0.000   0.200   0.000    0.00
   2.990   21.11  -13.34   -5.33   0.000   0.200   0.000    0.00
   3.000   21.04  -14.43   -5.74   0.000   0.200   0.000    0.00
   3.010   21.17  -13.93   -6.01   0.000   0.200   0.000    0.00
   3.020   20.85  -14.76   -6.52   0.000   0.200   0.000    0.00
   3.030   21.14  -15.00   -6.01   0.000   0.200   0.000    0.00
   3.040   21.11  -13.99   -5.79   0.000   0.200   0.000    0.00
   3.050   21.19  -14.73   -5.82   0.000   0.200   0.000    0.00
   3.060   21.88  -15.04   -5.97   0.000   0.200   0.000    0.00
   3.070   21.91  -15.67   -6.61   0.000   0.200   0.000    0.00
   3.080   22.07  -15.11   -6.37   0.000   0.200   0.000    0.00
   3.090   21.67  -14.32   -6.21   0.000   0.200   0.000    0.00
   3.100   21.56  -13.90   -6.00   0.000   0.200   0.000    0.00
   3.110   21.51  -13.26   -5.65   0.000   0.200   0.000    0.00
   3.120   21.27  -12.69   -5.52   0.000   0.200   0.000    0.00
   3.130   20.95  -13.64   -5.53   0.000   0.200   0.000    0.00
   3.140   20.74  -12.95   -5.66   0.000   0.200   0.000    0.00
   3.150   21.38  -10.50   -5.94   0.000   0.200   0.000    0.00
   3.160   21.58  -10.76   -7.01   0.000   0.200   0.000    0.00
   3.170   21.27  -10.88   -7.02   0.000   0.200   0.000    0.00
   3.180   21.66  -12.25   -6.54   0.000   0.200   0.000    0.00
   3.190   21.47  -12.57   -5.58   0.000   0.200   0.000    0.00
   3.200   21.69  -13.46   -5.73   0.000   0.200   0.000    0.00
   3.210   22.30  -13.59   -6.44   0.000   0.200   0.000    0.00
   3.220   21.95  -14.69   -6.93   0.000   0.200   0.000    0.00
   3.230   21.40  -14.08   -7.14   0.000   0.200   0.000    0.00
   3.240   20.93  -14.58   -7.32   0.000   0.200   0.000    0.00
   3.250   20.75  -14.83   -7.48   0.000   0.200   0.000    0.00
   3.260   20.80  -14.49   -8.00   0.000   0.200   0.000    0.00
   3.270   20.61  -14.24   -8.39   0.000   0.200   0.000    0.00
   3.280   20.38  -14.62   -8.25   0.000   0.200   0.000    0.00
   3.290   20.20  -13.53   -7.53   0.000   0.200   0.000    0.00
   3.300   20.36  -13.91   -8.01   0.000   0.200   0.000    0.00
   3.310   20.27  -14.34   -8.02   0.000   0.200   0.000    0.00
   3.320   20.58  -13.82   -7.62   0.000   0.200   0.000    0.00
   3.330   20.90  -14.84   -8.17   0.000   0.200   0.000    0.00
   3.340   20.75  -16.25   -7.85   0.000   0.200   0.000    0.00
   3.350   20.21  -15.10   -8.01   0.000   0.200   0.000    0.00
   3.360   20.40  -14.17   -8.08   0.000   0.200   0.000    0.00
   3.370   20.25  -14.35   -8.08   0.000   0.200   0.000    0.00
   3.380   20.24  -14.53   -7.85   0.000   0.200   0.000    0.00
   3.390   19.96  -15.63   -7.66   0.000   0.200   0.000    0.00
   3.400   19.69  -15.81   -7.64   0.000   0.200   0.000    0.00
   3.410   19.75  -15.79   -7.28   0.000   0.200   0.000    0.00
   3.420   19.14  -14.37   -7.08   0.000   0.200   0.000    0.00
   3.430   19.07  -15.85   -6.49   0.000   0.200   0.000    0.00
   3.440   18.86  -14.93   -6.27   0.000   0.200   0.000    0.00
   3.450   18.95  -13.41   -6.44   0.000   0.200   0.000    0.00
   3.460   19.05  -14.36   -6.63   0.000   0.200   0.000    0.00
   3.470   19.01  -13.98   -6.23   0.000   0.200   0.000    0.00
   3.480   18.53  -14.38   -5.85   0.000   0.200   0.000    0.00
   3.490   18.85  -13.92   -5.96   0.000   0.200   0.000    0.00
   3.500   19.25  -14.96   -6.08   0.000   0.200   0.000    0.00
   3.510   18.94  -14.94   -6.12   0.000   0.200   0.000    0.00
   3.520   18.82  -14.28   -6.24   0.000   0.200   0.000    0.00
   3.530   18.88  -14.14   -6.13   0.000   0.200   0.000    0.00
   3.540   18.27  -13.98   -5.97   0.000   0.200   0.000    0.00
   3.550   18.53  -14.19   -5.68   0.000   0.200   0.000    0.00
   3.560   18.82  -11.84   -5.34   0.000   0.200   0.000    0.00
   3.570   18.93  -13.53   -5.41   0.000   0.200   0.000    0.00
   3.580   19.37  -14.10   -5.54   0.000   0.200   0.000    0.00
   3.590   19.30  -15.29   -5.44   0.000   0.200   0.000    0.00
   3.600   19.52  -13.98   -5.73   0.000   0.200   0.000    0.00
   3.610   19.44  -14.64   -5.99   0.000   0.200   0.000    0.00
   3.620   19.52  -14.32   -6.29   0.000   0.200   0.000    0.00
   3.630   19.51  -13.82   -5.70   0.000   0.200   0.000    0.00
   3.640   19.63  -13.63   -6.07   0.000   0.200   0.000    0.00
   3.650   19.54  -11.02   -6.40   0.000   0.200   0.000    0.00
   3.660   19.68   -8.32   -6.00   0.000   0.200   0.000    0.00
   3.670   19.59   -8.58   -6.05   0.000   0.200   0.000    0.00
   3.680   19.87   -8.81   -6.19   0.000   0.200   0.000    0.00
   3.690   20.02   -8.89   -6.16   0.000   0.200   0.000    0.00
   3.700   20.27   -9.87   -6.29   0.000   0.200   0.000    0.00
   3.710   19.72  -10.11   -6.51   0.000   0.200   0.000    0.00
   3.720   19.33  -11.52   -6.12   0.000   0.200   0.000    0.00
   3.730   19.82  -11.95   -6.43   0.000   0.200   0.000    0.00
   3.740   19.11  -11.12   -6.48   0.000   0.200   0.000    0.00
   3.750   19.20  -11.78   -6.18   0.000   0.200   0.000    0.00
   3.760   19.20  -12.80   -6.07   0.000   0.200   0.000    0.00
   3.770   19.46  -11.60   -5.61   0.000   0.200   0.000    0.00
   3.780   20.15  -11.63   -6.00   0.000   0.200   0.000    0.00
   3.790   20.26  -12.14   -6.05   0.000   0.200   0.000    0.00
   3.800   19.92  -12.74   -6.08   0.000   0.200   0.000    0.00
   3.810   19.42  -12.86   -6.13   0.000   0.200   0.000    0.00
   3.820   19.84  -12.55   -6.46   0.000   0.200   0.000    0.00
   3.830   18.65  -11.34   -7.23   0.000   0.200   0.000    0.00
   3.840   18.74  -10.78   -6.55   0.000   0.200   0.000    0.00
   3.850   18.96   -9.85   -6.72   0.000   0.200   0.000    0.00
   3.860   19.23  -11.05   -7.17   0.000   0.200   0.000    0.00
   3.870   19.28   -9.26   -7.64   0.000   0.200   0.000    0.00
   3.880   19.77   -8.95   -7.43   0.000   0.200   0.000    0.00
   3.890   19.61   -7.89   -7.28   0.000   0.200   0.000    0.00
   3.900   19.67   -7.42   -7.02   0.000   0.200   0.000    0.00
   3.910   19.29   -6.57   -6.94   0.000   0.200   0.000    0.00
   3.920   19.48   -6.08   -7.12   0.000   0.200   0.000    0.00
   3.930   19.97   -5.13   -7.96   0.000   0.200   0.000    0.00
   3.940   19.91   -5.29   -7.99   0.000   0.200   0.000    0.00
   3.950   19.81   -3.87   -8.03   0.000   0.200   0.000    0.00
   3.960   19.92   -5.56   -7.89   0.000   0.200   0.000    0.00
   3.970   19.93   -5.09   -8.05   0.000   0.200   0.000    0.00
   3.980   19.85   -5.03   -8.25   0.000   0.200   0.000    0.00
   3.990   19.81   -3.96   -7.57   0.000   0.200   0.000    0.00
   4.000   19.44   -3.80   -7.60   0.000   0.200   0.000    0.00
   4.010   19.29   -2.53   -7.84   0.000   0.200   0.000    0.00
   4.020   19.64   -1.68   -7.31   0.000   0.200   0.000    0.00
   4.030   19.54   -2.18   -7.74   0.000   0.200   0.000    0.00
   4.040   19.31   -3.07   -7.72   0.000   0.200   0.000    0.00
   4.050   19.42   -3.45   -7.64   0.000   0.200   0.000    0.00
   4.060   19.47   -3.68   -7.28   0.000   0.200   0.000    0.00
   4.070   19.07   -5.49   -7.19   0.000   0.200   0.000    0.00
   4.080   19.58   -4.10   -7.15   0.000   0.200   0.000    0.00
   4.090   19.75   -4.72   -6.58   0.000   0.200   0.000    0.00
   4.100   19.61   -5.42   -6.75   0.000   0.200   0.000    0.00
   4.110   19.19   -7.52   -7.14   0.000   0.200   0.000    0.00
   4.120   19.29   -6.75   -7.32   0.000   0.200   0.000    0.00
   4.130   19.26   -8.46   -6.93   0.000   0.200   0.000    0.00
   4.140   18.86   -8.17   -6.52   0.000   0.200   0.000    0.00
   4.150   18.71   -7.36   -6.51   0.000   0.200   0.000    0.00
   4.160   18.78   -6.15   -5.90   0.000   0.200   0.000    0.00
   4.170   18.54   -5.01   -5.39   0.000   0.200   0.000    0.00
   4.180   18.38   -5.36   -5.48   0.000   0.200   0.000    0.00
   4.190   18.08   -4.31   -5.38   0.000   0.200   0.000    0.00
   4.200   18.51   -4.30   -5.29   0.000   0.200   0.000    0.00
   4.210   18.76   -4.99   -5.46   0.000   0.200   0.000    0.00
   4.220   19.09   -4.87   -5.30   0.000   0.200   0.000    0.00
   4.230   18.79   -6.04   -5.16   0.000   0.200   0.000    0.00
   4.240   18.13   -5.66   -5.61   0.000   0.200   0.000    0.00
   4.250   18.18   -5.26   -5.77   0.000   0.200   0.000    0.00
   4.260   18.24   -4.57   -5.29   0.000   0.200   0.000    0.00
   4.270   18.43   -4.15   -5.06   0.000   0.200   0.000    0.00
   4.280   18.96   -4.22   -4.74   0.000   0.200   0.000    0.00
   4.290   18.99   -3.23   -4.42   0.000   0.200   0.000    0.00
   4.300   18.68   -4.43   -4.67   0.000   0.200   0.000    0.00
   4.310   18.60   -5.49   -4.47   0.000   0.200   0.000    0.00
   4.320   18.72   -4.84   -4.19   0.000   0.200   0.000    0.00
   4.330   18.66   -6.23   -4.24   0.000   0.200   0.000    0.00
   4.340   19.33   -9.14   -4.36   0.000   0.200   0.000    0.00
   4.350   19.57   -9.55   -4.59   0.000   0.200   0.000    0.00
   4.360   19.42   -9.69   -4.24   0.000   0.200   0.000    0.00
   4.370   19.60   -8.35   -4.84   0.000   0.200   0.000    0.00
   4.380   19.35   -8.28   -4.53   0.000   0.200   0.000    0.00
   4.390   19.25   -8.76   -5.02   0.000   0.200   0.000    0.00
   4.400   18.89   -8.63   -5.22   0.000   0.200   0.000    0.00
   4.410   19.03   -8.10   -5.07   0.000   0.200   0.000    0.00
   4.420   18.96   -8.63   -4.41   0.000   0.200   0.000    0.00
   4.430   19.75  -10.28   -4.37   0.000   0.200   0.000    0.00
   4.440   20.08  -10.31   -4.19   0.000   0.200   0.000    0.00
   4.450   20.53   -9.07   -4.14   0.000   0.200   0.000    0.00
   4.460   20.32   -8.37   -4.01   0.000   0.200   0.000    0.00
   4.470   20.35  -12.11   -4.22   0.000   0.200   0.000    0.00
   4.480   20.37  -12.42   -4.67   0.000   0.200   0.000    0.00
   4.490   20.20  -11.64   -5.09   0.000   0.200   0.000    0.00
   4.500   20.68  -12.62   -5.67   0.000   0.200   0.000    0.00
   4.510   20.54  -11.76   -5.14   0.000   0.200   0.000    0.00
   4.520   20.28  -11.55   -4.80   0.000   0.200   0.000    0.00
   4.530   20.49  -12.73   -5.36   0.000   0.200   0.000    0.00
   4.540   20.01  -12.55   -5.09   0.000   0.200   0.000    0.00