! This hub-height wind-speed file was generated by TurbSim (from OpenFAST--128-NOTFOUND) on 23-Aug-2023 at 09:41:11.
!
! The requested statistics for this data were:
!    Mean Total Wind Speed =   20.000 m/s
!    Turbulence Intensity  =   14.420%
!
!   Time  HorSpd  WndDir  VerSpd  HorShr  VerShr  LnVShr  GstSpd
!  (sec)   (m/s)   (deg)   (m/s)     (-)     (-)     (-)   (m/s)
   0.000   21.38    7.81    1.36   0.000   0.200   0.000    0.00
   0.010   21.74    8.67    0.98   0.000   0.200   0.000    0.00
   0.020   22.03    7.51    0.88   0.000   0.200   0.000    0.00
   0.030   22.11    8.46    0.72   0.000   0.200   0.000    0.00
   0.040   22.06    7.63    1.01   0.000   0.200   0.000    0.00
   0.050   22.46    8.71    1.20   0.000   0.200   0.000    0.00
   0.060   22.82    6.98    1.47   0.000   0.200   0.000    0.00
   0.070   22.88    6.20    1.54   0.000   0.200   0.000    0.00
   0.080   22.95    6.16    1.61   0.000   0.200   0.000    0.00
   0.090   22.38    5.13    1.75   0.000   0.200   0.000    0.00
   0.100   22.34    5.67    0.76   0.000   0.200   0.000    0.00
   0.110   22.59    5.36    0.94   0.000   0.200   0.000    0.00
   0.120   23.06    5.10    1.03   0.000   0.200   0.000    0.00
   0.130   23.28    6.15    1.02   0.000   0.200   0.000    0.00
   0.140   23.47    6.96    1.57   0.000   0.200   0.000    0.00
   0.150   23.66    6.90    0.99   0.000   0.200   0.000    0.00
   0.160   23.79    6.30   -0.00   0.000   0.200   0.000    0.00
   0.170   23.39    5.91   -0.00   0.000   0.200   0.000    0.00
   0.180   23.85    8.19    0.51   0.000   0.200   0.000    0.00
   0.190   24.35    6.84   -0.09   0.000   0.200   0.000    0.00
   0.200   24.03    6.14   -0.26   0.000   0.200   0.000    0.00
   0.210   24.07    6.21   -0.43   0.000   0.200   0.000    0.00
   0.220   24.35    6.05   -0.34   0.000   0.200   0.000    0.00
   0.230   24.37    5.70    0.15   0.000   0.200   0.000    0.00
   0.240   24.20    6.45    0.26   0.000   0.200   0.000    0.00
   0.250   24.22    7.61    0.38   0.000   0.200   0.000    0.00
   0.260   24.86    7.76    0.10   0.000   0.200   0.000    0.00
   0.270   24.98    8.95    0.26   0.000   0.200   0.000    0.00
   0.280   24.71    7.62    0.03   0.000   0.200   0.000    0.00
   0.290   24.78    6.11   -0.34   0.000   0.200   0.000    0.00
   0.300   24.84    5.34   -0.23   0.000   0.200   0.000    0.00
   0.310   24.57    5.36    0.21   0.000   0.200   0.000    0.00
   0.320   23.90    5.91   -0.39   0.000   0.200   0.000    0.00
   0.330   24.17    5.93   -0.79   0.000   0.200   0.000    0.00
   0.340   24.36    4.58   -0.99   0.000   0.200   0.000    0.00
   0.350   24.68    4.84   -0.92   0.000   0.200   0.000    0.00
   0.360   24.59    4.11   -1.42   0.000   0.200   0.000    0.00
   0.370   24.62    2.16   -2.20   0.000   0.200   0.000    0.00
   0.380   24.33    1.77   -2.26   0.000   0.200   0.000    0.00
   0.390   24.33    1.85   -1.82   0.000   0.200   0.000    0.00
   0.400   24.49    2.18   -1.73   0.000   0.200   0.000    0.00
   0.410   24.23    2.79   -1.36   0.000   0.200   0.000    0.00
   0.420   23.66    4.15   -1.29   0.000   0.200   0.000    0.00
   0.430   23.43    3.49   -1.36   0.000   0.200   0.000    0.00
   0.440   23.58    2.90   -0.71   0.000   0.200   0.000    0.00
   0.450   24.12    3.79   -0.96   0.000   0.200   0.000    0.00
   0.460   23.87    4.88   -1.27   0.000   0.200   0.000    0.00
   0.470   23.85    4.29   -1.30   0.000   0.200   0.000    0.00
   0.480   24.23    4.18   -1.96   0.000   0.200   0.000    0.00
   0.490   24.11    4.61   -2.10   0.000   0.200   0.000    0.00
   0.500   24.01    5.18   -2.26   0.000   0.200   0.000    0.00
   0.510   24.10    4.66   -2.26   0.000   0.200   0.000    0.00
   0.520   24.71    3.75   -2.54   0.000   0.200   0.000    0.00
   0.530   24.70    4.31   -2.01   0.000   0.200   0.000    0.00
   0.540   24.05    4.04   -1.73   0.000   0.200   0.000    0.00
   0.550   24.27    4.81   -2.16   0.000   0.200   0.000    0.00
   0.560   23.94    4.63   -2.59   0.000   0.200   0.000    0.00
   0.570   23.87    4.30   -3.33   0.000   0.200   0.000    0.00
   0.580   24.13    5.06   -2.91   0.000   0.200   0.000    0.00
   0.590   23.68    4.58   -2.68   0.000   0.200   0.000    0.00
   0.600   23.48    5.20   -2.15   0.000   0.200   0.000    0.00
   0.610   23.63    5.26   -2.44   0.000   0.200   0.000    0.00
   0.620   23.93    4.69   -2.54   0.000   0.200   0.000    0.00
   0.630   24.06    4.61   -2.09   0.000   0.200   0.000    0.00
   0.640   23.94    5.25   -2.43   0.000   0.200   0.000    0.00
   0.650   23.88    4.17   -2.67   0.000   0.200   0.000    0.00
   0.660   23.49    3.55   -2.35   0.000   0.200   0.000    0.00
   0.670   23.33    3.61   -1.96   0.000   0.200   0.000    0.00
   0.680   23.37    3.18   -0.70   0.000   0.200   0.000    0.00
   0.690   23.51    2.33   -1.14   0.000   0.200   0.000    0.00
   0.700   23.59    1.70   -1.59   0.000   0.200   0.000    0.00
   0.710   23.81    2.59   -2.06   0.000   0.200   0.000    0.00
   0.720   24.04    1.91   -2.77   0.000   0.200   0.000    0.00
   0.730   23.90    1.99   -2.64   0.000   0.200   0.000    0.00
   0.740   23.92    1.77   -2.88   0.000   0.200   0.000    0.00
   0.750   24.35    0.98   -2.44   0.000   0.200   0.000    0.00
   0.760   24.68    1.54   -2.21   0.000   0.200   0.000    0.00
   0.770   24.45    1.02   -2.09   0.000   0.200   0.000    0.00
   0.780   24.57   -0.30   -2.08   0.000   0.200   0.000    0.00
   0.790   24.03   -1.10   -2.35   0.000   0.200   0.000    0.00
   0.800   23.89   -0.23   -2.27   0.000   0.200   0.000    0.00
   0.810   23.70    0.04   -2.79   0.000   0.200   0.000    0.00
   0.820   23.92    1.15   -2.88   0.000   0.200   0.000    0.00
   0.830   24.10    0.70   -3.33   0.000   0.200   0.000    0.00
   0.840   24.25    0.67   -3.27   0.000   0.200   0.000    0.00
   0.850   24.42   -0.66   -3.75   0.000   0.200   0.000    0.00
   0.860   24.01   -2.10   -3.41   0.000   0.200   0.000    0.00
   0.870   24.33   -1.85   -3.23   0.000   0.200   0.000    0.00
   0.880   23.83    0.07   -2.67   0.000   0.200   0.000    0.00
   0.890   23.44   -0.16   -3.29   0.000   0.200   0.000    0.00
   0.900   23.87   -0.40   -3.71   0.000   0.200   0.000    0.00
   0.910   23.71    0.81   -3.69   0.000   0.200   0.000    0.00
   0.920   23.92    1.12   -3.05   0.000   0.200   0.000    0.00
   0.930   23.98    0.66   -2.95   0.000   0.200   0.000    0.00
   0.940   24.08    0.40   -2.63   0.000   0.200   0.000    0.00
   0.950   23.84    1.05   -2.65   0.000   0.200   0.000    0.00
   0.960   23.59    1.33   -3.23   0.000   0.200   0.000    0.00
   0.970   23.56    1.84   -3.13   0.000   0.200   0.000    0.00
   0.980   23.59    1.76   -2.29   0.000   0.200   0.000    0.00
   0.990   23.75    0.90   -2.43   0.000   0.200   0.000    0.00
   1.000   23.41   -0.16   -2.76   0.000   0.200   0.000    0.00
   1.010   23.49   -0.18   -2.93   0.000   0.200   0.000    0.00
   1.020   23.55   -0.37   -2.90   0.000   0.200   0.000    0.00
   1.030   23.88   -2.28   -3.06   0.000   0.200   0.000    0.00
   1.040   23.90   -2.43   -3.10   0.000   0.200   0.000    0.00
   1.050   24.06   -2.10   -3.01   0.000   0.200   0.000    0.00
   1.060   24.12   -0.93   -3.27   0.000   0.200   0.000    0.00
   1.070   23.71   -1.63   -3.73   0.000   0.200   0.000    0.00
   1.080   23.93   -2.95   -3.89   0.000   0.200   0.000    0.00
   1.090   23.94   -2.43   -3.47   0.000   0.200   0.000    0.00
   1.100   24.46   -3.37   -3.84   0.000   0.200   0.000    0.00
   1.110   24.33   -1.93   -3.56   0.000   0.200   0.000    0.00
   1.120   24.12   -0.27   -3.59   0.000   0.200   0.000    0.00
   1.130   24.03    0.92   -3.44   0.000   0.200   0.000    0.00
   1.140   23.46    0.17   -3.58   0.000   0.200   0.000    0.00
   1.150   23.48    0.11   -3.99   0.000   0.200   0.000    0.00
   1.160   23.50    0.44   -3.64   0.000   0.200   0.000    0.00
   1.170   23.42    0.24   -3.43   0.000   0.200   0.000    0.00
   1.180   23.73   -0.79   -3.22   0.000   0.200   0.000    0.00
   1.190   23.97   -2.60   -3.78   0.000   0.200   0.000    0.00
   1.200   23.75   -3.78   -4.10   0.000   0.200   0.000    0.00
   1.210   24.03   -3.93   -3.76   0.000   0.200   0.000    0.00
   1.220   24.16   -2.45   -3.92   0.000   0.200   0.000    0.00
   1.230   24.07   -2.83   -3.63   0.000   0.200   0.000    0.00
   1.240   24.06   -4.53   -3.32   0.000   0.200   0.000    0.00
   1.250   24.41   -4.20   -3.62   0.000   0.200   0.000    0.00
   1.260   24.52   -4.56   -3.81   0.000   0.200   0.000    0.00
   1.270   24.50   -4.66   -3.64   0.000   0.200   0.000    0.00
   1.280   24.42   -3.91   -3.49   0.000   0.200   0.000    0.00
   1.290   24.83   -4.71   -3.20   0.000   0.200   0.000    0.00
   1.300   24.73   -5.13   -2.99   0.000   0.200   0.000    0.00
   1.310   24.27   -4.91   -3.24   0.000   0.200   0.000    0.00
   1.320   23.98   -3.88   -2.87   0.000   0.200   0.000    0.00
   1.330   24.14   -3.18   -3.40   0.000   0.200   0.000    0.00
   1.340   24.35   -2.05   -3.71   0.000   0.200   0.000    0.00
   1.350   24.41   -2.76   -3.42   0.000   0.200   0.000    0.00
   1.360   24.08   -3.45   -3.50   0.000   0.200   0.000    0.00
   1.370   24.11   -3.51   -3.19   0.000   0.200   0.000    0.00
   1.380   24.38   -4.15   -3.61   0.000   0.200   0.000    0.00
   1.390   24.41   -4.82   -4.25   0.000   0.200   0.000    0.00
   1.400   24.02   -6.95   -4.58   0.000   0.200   0.000    0.00
   1.410   23.85   -6.49   -4.45   0.000   0.200   0.000    0.00
   1.420   23.03   -4.36   -4.55   0.000   0.200   0.000    0.00
   1.430   23.34   -3.75   -4.28   0.000   0.200   0.000    0.00
   1.440   23.32   -6.58   -3.74   0.000   0.200   0.000    0.00
   1.450   23.74   -7.45   -3.73   0.000   0.200   0.000    0.00
   1.460   23.56   -7.86   -4.16   0.000   0.200   0.000    0.00
   1.470   23.47   -7.51   -4.22   0.000   0.200   0.000    0.00
   1.480   23.57   -7.39   -3.83   0.000   0.200   0.000    0.00
   1.490   23.69   -6.95   -3.30   0.000   0.200   0.000    0.00
   1.500   23.52   -6.78   -3.25   0.000   0.200   0.000    0.00
   1.510   23.12   -5.89   -3.16   0.000   0.200   0.000    0.00
   1.520   23.85   -4.85   -3.34   0.000   0.200   0.000    0.00
   1.530   23.52   -4.82   -2.88   0.000   0.200   0.000    0.00
   1.540   23.56   -5.85   -3.19   0.000   0.200   0.000    0.00
   1.550   23.87   -6.09   -3.46   0.000   0.200   0.000    0.00
   1.560   24.00   -6.80   -3.74   0.000   0.200   0.000    0.00
   1.570   23.83   -5.85   -4.07   0.000   0.200   0.000    0.00
   1.580   23.93   -6.12   -4.17   0.000   0.200   0.000    0.00
   1.590   23.55   -5.42   -4.93   0.000   0.200   0.000    0.00
   1.600   23.49   -5.18   -4.27   0.000   0.200   0.000    0.00
   1.610   23.61   -4.69   -3.97   0.000   0.200   0.000    0.00
   1.620   23.73   -4.70   -4.29   0.000   0.200   0.000    0.00
   1.630   23.34   -4.58   -4.28   0.000   0.200   0.000    0.00
   1.640   23.18   -4.08   -4.41   0.000   0.200   0.000    0.00
   1.650   23.79   -4.76   -4.26   0.000   0.200   0.000    0.00
   1.660   23.85   -3.75   -4.29   0.000   0.200   0.000    0.00
   1.670   23.30   -4.36   -4.35   0.000   0.200   0.000    0.00
   1.680   24.13   -4.01   -4.18   0.000   0.200   0.000    0.00
   1.690   24.31   -2.74   -4.14   0.000   0.200   0.000    0.00
   1.700   23.84   -1.32   -3.63   0.000   0.200   0.000    0.00
   1.710   23.90   -1.65   -3.58   0.000   0.200   0.000    0.00
   1.720   23.12   -1.10   -3.33   0.000   0.200   0.000    0.00
   1.730   23.23   -2.76   -3.30   0.000   0.200   0.000    0.00
   1.740   23.29   -4.27   -3.25   0.000   0.200   0.000    0.00
   1.750   23.20   -3.76   -2.86   0.000   0.200   0.000    0.00
   1.760   23.05   -4.19   -2.69   0.000   0.200   0.000    0.00
   1.770   23.20   -6.60   -3.42   0.000   0.200   0.000    0.00
   1.780   23.15   -3.99   -3.36   0.000   0.200   0.000    0.00
   1.790   23.40   -3.23   -3.51   0.000   0.200   0.000    0.00
   1.800   23.98   -2.83   -3.22   0.000   0.200   0.000    0.00
   1.810   24.19   -2.59   -3.12   0.000   0.200   0.000    0.00
   1.820   23.60   -1.60   -3.35   0.000   0.200   0.000    0.00
   1.830   23.21   -1.70   -2.85   0.000   0.200   0.000    0.00
   1.840   23.10   -1.06   -3.62   0.000   0.200   0.000    0.00
   1.850   23.06   -0.19   -3.86   0.000   0.200   0.000    0.00
   1.860   22.62   -1.83   -3.98   0.000   0.200   0.000    0.00
   1.870   22.71   -1.46   -3.83   0.000   0.200   0.000    0.00
   1.880   22.33   -3.64   -3.37   0.000   0.200   0.000    0.00
   1.890   22.58   -4.86   -3.64   0.000   0.200   0.000    0.00
   1.900   22.56   -4.39   -3.90   0.000   0.200   0.000    0.00
   1.910   22.36   -2.71   -4.13   0.000   0.200   0.000    0.00
   1.920   22.67   -1.80   -3.54   0.000   0.200   0.000    0.00
   1.930   22.75   -2.39   -3.45   0.000   0.200   0.000    0.00
   1.940   23.30   -3.55   -3.52   0.000   0.200   0.000    0.00
   1.950   23.30   -4.15   -3.31   0.000   0.200   0.000    0.00
   1.960   22.97   -4.62   -3.18   0.000   0.200   0.000    0.00
   1.970   23.06   -4.50   -3.08   0.000   0.200   0.000    0.00
   1.980   23.19   -3.18   -2.46   0.000   0.200   0.000    0.00
   1.990   23.25   -3.35   -2.50   0.000   0.200   0.000    0.00
   2.000   23.03   -3.29   -2.64   0.000   0.200   0.000    0.00
   2.010   23.02   -2.46   -2.38   0.000   0.200   0.000    0.00
   2.020   23.05   -2.82   -2.04   0.000   0.200   0.000    0.00
   2.030   23.19   -2.70   -2.03   0.000   0.200   0.000    0.00
   2.040   23.77   -2.26   -2.01   0.000   0.200   0.000    0.00
   2.050   24.12   -1.65   -1.93   0.000   0.200   0.000    0.00
   2.060   24.41   -2.98   -2.10   0.000   0.200   0.000    0.00
   2.070   24.56   -1.62   -2.25   0.000   0.200   0.000    0.00
   2.080   24.72   -2.72   -1.88   0.000   0.200   0.000    0.00
   2.090   24.79   -2.33   -2.54   0.000   0.200   0.000    0.00
   2.100   24.46   -3.81   -2.48   0.000   0.200   0.000    0.00
   2.110   24.84   -3.37   -2.08   0.000   0.200   0.000    0.00
   2.120   24.90   -3.69   -1.74   0.000   0.200   0.000    0.00
   2.130   24.56   -4.13   -1.91   0.000   0.200   0.000    0.00
   2.140   24.63   -4.46   -1.87   0.000   0.200   0.000    0.00
   2.150   24.67   -5.40   -2.39   0.000   0.200   0.000    0.00
   2.160   24.43   -6.14   -2.70   0.000   0.200   0.000    0.00
   2.170   24.32   -7.23   -2.36   0.000   0.200   0.000    0.00
   2.180   24.23   -7.36   -2.25   0.000   0.200   0.000    0.00
   2.190   23.97   -8.07   -2.20   0.000   0.200   0.000    0.00
   2.200   23.85   -9.14   -1.74   0.000   0.200   0.000    0.00
   2.210   23.88   -9.73   -1.74   0.000   0.200   0.000    0.00
   2.220   24.30   -9.84   -1.78   0.000   0.200   0.000    0.00
   2.230   24.64  -10.03   -2.13   0.000   0.200   0.000    0.00
   2.240   24.29  -10.00   -2.46   0.000   0.200   0.000    0.00
   2.250   24.26   -9.28   -2.64   0.000   0.200   0.000    0.00
   2.260   24.29   -9.51   -2.83   0.000   0.200   0.000    0.00
   2.270   24.58  -10.65   -2.84   0.000   0.200   0.000    0.00
   2.280   25.18  -10.60   -3.78   0.000   0.200   0.000    0.00
   2.290   25.51   -9.32   -4.48   0.000   0.200   0.000    0.00
   2.300   25.13  -10.26   -4.27   0.000   0.200   0.000    0.00
   2.310   24.39  -10.97   -3.98   0.000   0.200   0.000    0.00
   2.320   23.87  -10.71   -3.37   0.000   0.200   0.000    0.00
   2.330   23.77  -10.46   -3.59   0.000   0.200   0.000    0.00
   2.340   23.76  -11.39   -3.78   0.000   0.200   0.000    0.00
   2.350   23.97  -12.64   -4.27   0.000   0.200   0.000    0.00
   2.360   24.31  -14.00   -4.13   0.000   0.200   0.000    0.00
   2.370   24.17  -13.60   -4.78   0.000   0.200   0.000    0.00
   2.380   23.91  -12.88   -4.37   0.000   0.200   0.000    0.00
   2.390   24.04  -12.52   -3.69   0.000   0.200   0.000    0.00
   2.400   24.07  -12.24   -3.68   0.000   0.200   0.000    0.00
   2.410   24.68  -11.08   -4.07   0.000   0.200   0.000    0.00
   2.420   24.31   -8.99   -3.26   0.000   0.200   0.000    0.00
   2.430   24.09   -9.84   -2.82   0.000   0.200   0.000    0.00
   2.440   23.95   -9.63   -2.91   0.000   0.200   0.000    0.00
   2.450   24.19   -9.17   -2.58   0.000   0.200   0.000    0.00
   2.460   23.69   -8.74   -2.51   0.000   0.200   0.000    0.00
   2.470   23.61   -7.77   -2.47   0.000   0.200   0.000    0.00
   2.480   23.30   -8.62   -2.73   0.000   0.200   0.000    0.00
   2.490   23.01   -9.14   -2.80   0.000   0.200   0.000    0.00
   2.500   23.07   -7.63   -3.00   0.000   0.200   0.000    0.00
   2.510   23.86   -6.47   -2.30   0.000   0.200   0.000    0.00
   2.520   23.66   -7.10   -1.95   0.000   0.200   0.000    0.00
   2.530   23.17   -7.81   -1.98   0.000   0.200   0.000    0.00
   2.540   22.78   -7.75   -2.14   0.000   0.200   0.000    0.00
   2.550   22.80   -8.05   -2.12   0.000   0.200   0.000    0.00
   2.560   22.84   -8.14   -1.87   0.000   0.200   0.000    0.00
   2.570   22.70   -8.08   -1.66   0.000   0.200   0.000    0.00
   2.580   22.02   -6.29   -1.67   0.000   0.200   0.000    0.00
   2.590   21.96   -6.76   -1.67   0.000   0.200   0.000    0.00
   2.600   21.53   -6.93   -1.40   0.000   0.200   0.000    0.00
   2.610   21.72   -6.93   -1.67   0.000   0.200   0.000    0.00
   2.620   21.17   -7.05   -2.08   0.000   0.200   0.000    0.00
   2.630   21.53   -7.99   -2.18   0.000   0.200   0.000    0.00
   2.640   21.76   -9.13   -2.42   0.000   0.200   0.000    0.00
   2.650   21.74   -9.35   -2.29   0.000   0.200   0.000    0.00
   2.660   21.15  -10.15   -2.01   0.000   0.200   0.000    0.00
   2.670   20.68   -9.97   -1.68   0.000   0.200   0.000    0.00
   2.680   20.22  -10.19   -2.32   0.000   0.200   0.000    0.00
   2.690   20.25   -8.26   -2.96   0.000   0.200   0.000    0.00
   2.700   20.40   -6.61   -2.58   0.000   0.200   0.000    0.00
   2.710   20.89   -7.24   -2.31   0.000   0.200   0.000    0.00
   2.720   21.08   -7.61   -2.44   0.000   0.200   0.000    0.00
   2.730   21.34   -9.46   -2.23   0.000   0.200   0.000    0.00
   2.740   21.56   -9.64   -1.70   0.000   0.200   0.000    0.00
   2.750   21.95   -8.72   -1.87   0.000   0.200   0.000    0.00
   2.760   22.22   -8.94   -2.08   0.000   0.200   0.000    0.00
   2.770   22.11   -7.49   -1.59   0.000   0.200   0.000    0.00
   2.780   22.16   -8.35   -1.51   0.000   0.200   0.000    0.00
   2.790   22.21   -8.99   -1.46   0.000   0.200   0.000    0.00
   2.800   22.10   -8.30   -1.40   0.000   0.200   0.000    0.00
   2.810   21.60   -7.97   -1.13   0.000   0.200   0.000    0.00
   2.820   21.92   -8.76   -1.20   0.000   0.200   0.000    0.00
   2.830   21.81  -10.21   -1.61   0.000   0.200   0.000    0.00
   2.840   21.50  -10.73   -1.88   0.000   0.200   0.000    0.00
   2.850   21.63  -11.00   -2.23   0.000   0.200   0.000    0.00
   2.860   21.85   -8.52   -2.20   0.000   0.200   0.000    0.00
   2.870   22.11   -9.44   -1.46   0.000   0.200   0.000    0.00
   2.880   22.19  -10.22   -1.09   0.000   0.200   0.000    0.00
   2.890   21.98   -9.22   -1.29   0.000   0.200   0.000    0.00
   2.900   21.59   -9.39   -0.37   0.000   0.200   0.000    0.00
   2.910   21.61   -9.23    0.08   0.000   0.200   0.000    0.00
   2.920   21.07   -7.91    0.34   0.000   0.200   0.000    0.00
   2.930   20.91   -8.72    0.25   0.000   0.200   0.000    0.00
   2.940   21.22   -9.13    0.24   0.000   0.200   0.000    0.00
   2.950   21.50   -9.50    0.08   0.000   0.200   0.000    0.00
   2.960   20.80  -10.84    0.41   0.000   0.200   0.000    0.00
   2.970   20.18   -9.96    0.35   0.000   0.200   0.000    0.00
   2.980   19.83   -8.86   -0.42   0.000   0.200   0.000    0.00
   2.990   19.96   -8.59   -0.14   0.000   0.200   0.000    0.00
   3.000   19.77   -8.86    0.03   0.000   0.200   0.000    0.00
   3.010   20.09   -9.06   -0.01   0.000   0.200   0.000    0.00
   3.020   19.90   -8.65    0.53   0.000   0.200   0.000    0.00
   3.030   19.03   -9.26    0.80   0.000   0.200   0.000    0.00
   3.040   19.38  -10.78    0.34   0.000   0.200   0.000    0.00
   3.050   19.74  -12.34    0.38   0.000   0.200   0.000    0.00
   3.060   19.40  -11.87    0.89   0.000   0.200   0.000    0.00
   3.070   19.69  -10.16    0.34   0.000   0.200   0.000    0.00
   3.080   19.85  -11.26   -0.31   0.000   0.200   0.000    0.00
   3.090   19.76  -11.57   -0.47   0.000   0.200   0.000    0.00
   3.100   19.90  -13.45   -0.09   0.000   0.200   0.000    0.00
   3.110   20.09  -12.98   -0.18   0.000   0.200   0.000    0.00
   3.120   20.12  -12.48    0.29   0.000   0.200   0.000    0.00
   3.130   20.42  -12.91    0.50   0.000   0.200   0.000    0.00
   3.140   20.76  -13.80    0.33   0.000   0.200   0.000    0.00
   3.150   21.12  -14.13   -0.40   0.000   0.200   0.000    0.00
   3.160   21.19  -14.30    0.00   0.000   0.200   0.000    0.00
   3.170   21.52  -12.96    0.15   0.000   0.200   0.000    0.00
   3.180   21.38  -12.53    0.85   0.000   0.200   0.000    0.00
   3.190   21.41  -12.22    0.60   0.000   0.200   0.000    0.00
   3.200   21.50  -12.43    0.26   0.000   0.200   0.000    0.00
   3.210   21.69  -11.62    0.67   0.000   0.200   0.000    0.00
   3.220   21.62  -11.56    1.17   0.000   0.200   0.000    0.00
   3.230   21.68  -11.33    1.86   0.000   0.200   0.000    0.00
   3.240   22.21  -12.52    1.44   0.000   0.200   0.000    0.00
   3.250   22.00  -11.50    1.73   0.000   0.200   0.000    0.00
   3.260   21.29  -11.59    2.52   0.000   0.200   0.000    0.00
   3.270   21.37  -12.07    2.10   0.000   0.200   0.000    0.00
   3.280   21.37  -11.23    2.85   0.000   0.200   0.000    0.00
   3.290   20.94  -10.78    3.36   0.000   0.200   0.000    0.00
   3.300   21.21  -11.28    2.92   0.000   0.200   0.000    0.00
   3.310   20.97  -11.70    2.74   0.000   0.200   0.000    0.00
   3.320   21.38  -11.29    2.71   0.000   0.200   0.000    0.00
   3.330   21.48  -11.21    2.86   0.000   0.200   0.000    0.00
   3.340   21.69  -10.78    2.75   0.000   0.200   0.000    0.00
   3.350   21.67  -10.43    2.58   0.000   0.200   0.000    0.00
   3.360   21.60   -9.74    2.48   0.000   0.200   0.000    0.00
   3.370   21.03  -10.49    2.35   0.000   0.200   0.000    0.00
   3.380   20.94  -10.66    2.15   0.000   0.200   0.000    0.00
   3.390   20.93  -10.37    2.39   0.000   0.200   0.000    0.00
   3.400   20.40   -9.47    2.78   0.000   0.200   0.000    0.00
   3.410   20.74   -9.44    2.38   0.000   0.200   0.000    0.00
   3.420   20.38   -9.94    1.88   0.000   0.200   0.000    0.00
   3.430   20.06   -9.38    1.53   0.000   0.200   0.000    0.00
   3.440   20.59   -9.17    1.56   0.000   0.200   0.000    0.00
   3.450   20.34   -9.35    1.42   0.000   0.200   0.000    0.00
   3.460   20.21   -9.60    1.71   0.000   0.200   0.000    0.00
   3.470   20.43  -11.85    1.08   0.000   0.200   0.000    0.00
   3.480   20.81  -12.78    0.99   0.000   0.200   0.000    0.00
   3.490   21.33  -12.02    1.20   0.000   0.200   0.000    0.00
   3.500   21.28  -10.23    1.34   0.000   0.200   0.000    0.00
   3.510   20.63   -9.70    1.88   0.000   0.200   0.000    0.00
   3.520   20.58  -11.33    1.57   0.000   0.200   0.000    0.00
   3.530   20.59  -10.69    1.74   0.000   0.200   0.000    0.00
   3.540   20.46   -7.86    1.19   0.000   0.200   0.000    0.00
   3.550   20.60   -7.28    1.19   0.000   0.200   0.000    0.00
   3.560   20.45   -6.81    1.31   0.000   0.200   0.000    0.00
   3.570   21.00   -6.28    1.29   0.000   0.200   0.000    0.00
   3.580   21.33   -6.52    1.89   0.000   0.200   0.000    0.00
   3.590   20.78   -5.05    1.17   0.000   0.200   0.000    0.00
   3.600   19.82   -4.12    1.50   0.000   0.200   0.000    0.00
   3.610   19.37   -4.51    2.07   0.000   0.200   0.000    0.00
   3.620   19.14   -3.37    1.64   0.000   0.200   0.000    0.00
   3.630   19.80   -1.28    1.81   0.000   0.200   0.000    0.00
   3.640   20.13   -2.98    1.37   0.000   0.200   0.000    0.00
   3.650   19.74   -3.19    1.29   0.000   0.200   0.000    0.00
   3.660   19.76   -2.88    0.63   0.000   0.200   0.000    0.00
   3.670   19.23   -2.59   -0.19   0.000   0.200   0.000    0.00
   3.680   19.29   -2.05   -0.19   0.000   0.200   0.000    0.00
   3.690   19.70   -2.57   -0.19   0.000   0.200   0.000    0.00
   3.700   19.92   -3.73    0.21   0.000   0.200   0.000    0.00
   3.710   20.06   -2.47    0.91   0.000   0.200   0.000    0.00
   3.720   20.27   -3.23    0.95   0.000   0.200   0.000    0.00
   3.730   20.42   -2.79    1.18   0.000   0.200   0.000    0.00
   3.740   20.46   -3.58    1.56   0.000   0.200   0.000    0.00
   3.750   20.68   -4.64    1.09   0.000   0.200   0.000    0.00
   3.760   20.46   -5.21    1.42   0.000   0.200   0.000    0.00
   3.770   20.44   -4.76    1.09   0.000   0.200   0.000    0.00
   3.780   20.32   -3.58    1.33   0.000   0.200   0.000    0.00
   3.790   20.63   -2.76    0.78   0.000   0.200   0.000    0.00
   3.800   20.75   -3.98    0.74   0.000   0.200   0.000    0.00
   3.810   20.89   -5.42    0.81   0.000   0.200   0.000    0.00
   3.820   21.06   -2.36    1.25   0.000   0.200   0.000    0.00
   3.830   20.95   -2.12    1.29   0.000   0.200   0.000    0.00
   3.840   21.26   -2.31    1.21   0.000   0.200   0.000    0.00
   3.850   21.28   -2.87    1.60   0.000   0.200   0.000    0.00
   3.860   21.71   -1.86    1.56   0.000   0.200   0.000    0.00
   3.870   21.61   -1.87    2.18   0.000   0.200   0.000    0.00
   3.880   21.33   -1.57    1.82   0.000   0.200   0.000    0.00
   3.890   21.00   -3.15    1.72   0.000   0.200   0.000    0.00
   3.900   21.29   -3.07    1.01   0.000   0.200   0.000    0.00
   3.910   21.51   -2.26    2.02   0.000   0.200   0.000    0.00
   3.920   21.58   -2.74    1.74   0.000   0.200   0.000    0.00
   3.930   21.36   -3.88    0.96   0.000   0.200   0.000    0.00
   3.940   21.39   -5.24    0.92   0.000   0.200   0.000    0.00
   3.950   21.72   -6.42    0.57   0.000   0.200   0.000    0.00
   3.960   21.96   -6.52    0.67   0.000   0.200   0.000    0.00
   3.970   22.06   -4.43    1.05   0.000   0.200   0.000    0.00
   3.980   22.02   -4.21    1.23   0.000   0.200   0.000    0.00
   3.990   22.08   -5.85    1.08   0.000   0.200   0.000    0.00
   4.000   21.62   -5.28    0.99   0.000   0.200   0.000    0.00
   4.010   21.67   -6.63    1.79   0.000   0.200   0.000    0.00
   4.020   21.61   -7.44    1.33   0.000   0.200   0.000    0.00
   4.030   21.95   -6.90    0.75   0.000   0.200   0.000    0.00
   4.040   21.56   -6.56    0.77   0.000   0.200   0.000    0.00
   4.050   21.72   -5.81    0.91   0.000   0.200   0.000    0.00
   4.060   21.17   -4.66    0.96   0.000   0.200   0.000    0.00
   4.070   21.01   -5.83    1.05   0.000   0.200   0.000    0.00
   4.080   20.89   -5.50    1.21   0.000   0.200   0.000    0.00
   4.090   21.03   -7.03    1.54   0.000   0.200   0.000    0.00
   4.100   21.63   -6.86    1.46   0.000   0.200   0.000    0.00
   4.110   21.32   -4.91    1.31   0.000   0.200   0.000    0.00
   4.120   21.07   -5.36    1.70   0.000   0.200   0.000    0.00
   4.130   21.13   -5.09    2.31   0.000   0.200   0.000    0.00
   4.140   21.17   -4.39    1.89   0.000   0.200   0.000    0.00
   4.150   20.99   -4.80    2.15   0.000   0.200   0.000    0.00
   4.160   21.12   -4.36    2.19   0.000   0.200   0.000    0.00
   4.170   20.89   -4.74    2.27   0.000   0.200   0.000    0.00
   4.180   21.23   -5.55    2.21   0.000   0.200   0.000    0.00
   4.190   21.44   -6.58    2.54   0.000   0.200   0.000    0.00
   4.200   21.65   -7.06    2.55   0.000   0.200   0.000    0.00
   4.210   21.77   -7.21    2.44   0.000   0.200   0.000    0.00
   4.220   21.43   -7.57    2.38   0.000   0.200   0.000    0.00
   4.230   21.28   -6.37    2.85   0.000   0.200   0.000    0.00
   4.240   21.30   -7.16    3.19   0.000   0.200   0.000    0.00
   4.250   21.06   -8.09    2.25   0.000   0.200   0.000    0.00
   4.260   21.05   -7.45    2.39   0.000   0.200   0.000    0.00
   4.270   21.27   -6.49    2.10   0.000   0.200   0.000    0.00
   4.280   21.94   -6.18    2.69   0.000   0.200   0.000    0.00
   4.290   21.88   -6.63    3.01   0.000   0.200   0.000    0.00
   4.300   21.87   -5.91    2.33   0.000   0.200   0.000    0.00
   4.310   22.09   -4.69    1.82   0.000   0.200   0.000    0.00
   4.320   22.19   -5.24    1.89   0.000   0.200   0.000    0.00
   4.330   21.98   -6.38    2.26   0.000   0.200   0.000    0.00
   4.340   22.34   -4.80    1.93   0.000   0.200   0.000    0.00
   4.350   22.63   -4.71    1.96   0.000   0.200   0.000    0.00
   4.360   22.26   -5.18    1.62   0.000   0.200   0.000    0.00
   4.370   22.19   -6.62    1.27   0.000   0.200   0.000    0.00
   4.380   22.05   -6.35    1.30   0.000   0.200   0.000    0.00
   4.390   21.65   -7.32    1.48   0.000   0.200   0.000    0.00
   4.400   21.55   -6.40    1.58   0.000   0.200   0.000    0.00
   4.410   21.60   -5.49    1.82   0.000   0.200   0.000    0.00
   4.420   21.39   -6.65    1.45   0.000   0.200   0.000    0.00
   4.430   21.39   -5.12    2.16   0.000   0.200   0.000    0.00
   4.440   21.49   -6.06    3.12   0.000   0.200   0.000    0.00
   4.450   21.46   -4.62    2.82   0.000   0.200   0.000    0.00
   4.460   21.17   -3.67    2.99   0.000   0.200   0.000    0.00
   4.470   21.52   -3.73    2.52   0.000   0.200   0.000    0.00
   4.480   21.00   -4.63    2.94   0.000   0.200   0.000    0.00
   4.490   20.51   -4.99    2.77   0.000   0.200   0.000    0.00
   4.500   20.83   -5.31    1.97   0.000   0.200   0.000    0.00
   4.510   21.05   -4.23    1.77   0.000   0.200   0.000    0.00
   4.520   20.67   -3.38    1.78   0.000   0.200   0.000    0.00
   4.530   20.23   -2.31    1.69   0.000   0.200   0.000    0.00
   4.540   20.17   -3.77    1.64   0.000   0.200   0.000    0.00