! This hub-height wind-speed file was generated by TurbSim (from OpenFAST--128-NOTFOUND) on 23-Aug-2023 at 09:41:11.
!
! The requested statistics for this data were:
!    Mean Total Wind Speed =   20.000 m/s
!    Turbulence Intensity  =   14.420%
!
!   Time  HorSpd  WndDir  VerSpd  HorShr  VerShr  LnVShr  GstSpd
!  (sec)   (m/s)   (deg)   (m/s)     (-)     (-)     (-)   (m/s)
   0.000   19.15   10.89    1.26   0.000   0.200   0.000    0.00
   0.010   18.44   10.17    1.91   0.000   0.200   0.000    0.00
   0.020   18.72    9.18    2.51   0.000   0.200   0.000    0.00
   0.030   18.88   10.03    2.30   0.000   0.200   0.000    0.00
   0.040   18.33    7.25    1.70   0.000   0.200   0.000    0.00
   0.050   18.33    5.67    1.48   0.000   0.200   0.000    0.00
   0.060   17.99    7.43    1.49   0.000   0.200   0.000    0.00
   0.070   18.36    7.67    1.71   0.000   0.200   0.000    0.00
   0.080   18.45    7.76    2.03   0.000   0.200   0.000    0.00
   0.090   18.33    8.00    1.79   0.000   0.200   0.000    0.00
   0.100   18.44    6.99    1.83   0.000   0.200   0.000    0.00
   0.110   18.56    8.63    1.56   0.000   0.200   0.000    0.00
   0.120   18.03    9.14    1.69   0.000   0.200   0.000    0.00
   0.130   18.55   10.41    2.17   0.000   0.200   0.000    0.00
   0.140   18.31    9.95    2.43   0.000   0.200   0.000    0.00
   0.150   18.24   10.64    1.96   0.000   0.200   0.000    0.00
   0.160   18.64   10.85    2.03   0.000   0.200   0.000    0.00
   0.170   19.49   11.26    1.91   0.000   0.200   0.000    0.00
   0.180   19.55    9.73    2.24   0.000   0.200   0.000    0.00
   0.190   19.50    9.75    1.97   0.000   0.200   0.000    0.00
   0.200   19.46   10.89    1.71   0.000   0.200   0.000    0.00
   0.210   19.44   11.03    2.04   0.000   0.200   0.000    0.00
   0.220   19.32   10.30    1.94   0.000   0.200   0.000    0.00
   0.230   19.33   10.83    2.24   0.000   0.200   0.000    0.00
   0.240   19.44   13.09    1.86   0.000   0.200   0.000    0.00
   0.250   19.59   12.69    1.99   0.000   0.200   0.000    0.00
   0.260   19.52   12.48    2.43   0.000   0.200   0.000    0.00
   0.270   19.96   11.46    2.23   0.000   0.200   0.000    0.00
   0.280   20.12   12.04    1.90   0.000   0.200   0.000    0.00
   0.290   19.47   11.99    1.65   0.000   0.200   0.000    0.00
   0.300   18.89   11.60    1.80   0.000   0.200   0.000    0.00
   0.310   19.02   11.84    1.51   0.000   0.200   0.000    0.00
   0.320   19.52   11.67    1.42   0.000   0.200   0.000    0.00
   0.330   19.66   10.96    1.64   0.000   0.200   0.000    0.00
   0.340   19.71   10.23    1.60   0.000   0.200   0.000    0.00
   0.350   19.86   12.63    1.71   0.000   0.200   0.000    0.00
   0.360   19.79   13.16    1.92   0.000   0.200   0.000    0.00
   0.370   20.05   12.16    1.88   0.000   0.200   0.000    0.00
   0.380   20.00   11.60    1.97   0.000   0.200   0.000    0.00
   0.390   20.07   10.42    1.53   0.000   0.200   0.000    0.00
   0.400   19.67   11.58    1.26   0.000   0.200   0.000    0.00
   0.410   19.45   11.10    1.64   0.000   0.200   0.000    0.00
   0.420   19.92   11.86    1.07   0.000   0.200   0.000    0.00
   0.430   20.24   12.72    1.20   0.000   0.200   0.000    0.00
   0.440   19.94   12.88    1.68   0.000   0.200   0.000    0.00
   0.450   20.20   12.39    1.83   0.000   0.200   0.000    0.00
   0.460   19.98   12.29    1.39   0.000   0.200   0.000    0.00
   0.470   19.96   10.32    1.67   0.000   0.200   0.000    0.00
   0.480   19.69    8.24    1.56   0.000   0.200   0.000    0.00
   0.490   20.20    7.72    1.40   0.000   0.200   0.000    0.00
   0.500   20.42    9.40    2.29   0.000   0.200   0.000    0.00
   0.510   20.66    9.27    2.33   0.000   0.200   0.000    0.00
   0.520   20.67   10.62    2.20   0.000   0.200   0.000    0.00
   0.530   20.58    9.74    2.18   0.000   0.200   0.000    0.00
   0.540   20.23    9.69    1.83   0.000   0.200   0.000    0.00
   0.550   19.68    9.53    1.88   0.000   0.200   0.000    0.00
   0.560   20.01    9.75    1.71   0.000   0.200   0.000    0.00
   0.570   19.77    9.64    2.03   0.000   0.200   0.000    0.00
   0.580   19.59    8.89    2.51   0.000   0.200   0.000    0.00
   0.590   19.30    8.69    2.88   0.000   0.200   0.000    0.00
   0.600   19.23    7.70    2.66   0.000   0.200   0.000    0.00
   0.610   19.17    9.54    2.70   0.000   0.200   0.000    0.00
   0.620   19.15    7.68    2.92   0.000   0.200   0.000    0.00
   0.630   19.18    8.96    2.56   0.000   0.200   0.000    0.00
   0.640   19.21    8.81    2.37   0.000   0.200   0.000    0.00
   0.650   18.97    7.43    2.69   0.000   0.200   0.000    0.00
   0.660   18.62    5.65    2.96   0.000   0.200   0.000    0.00
   0.670   19.07    5.33    3.38   0.000   0.200   0.000    0.00
   0.680   19.52    5.26    3.29   0.000   0.200   0.000    0.00
   0.690   19.20    6.64    2.69   0.000   0.200   0.000    0.00
   0.700   18.95    7.07    2.47   0.000   0.200   0.000    0.00
   0.710   18.90    7.07    2.51   0.000   0.200   0.000    0.00
   0.720   18.98    6.77    2.66   0.000   0.200   0.000    0.00
   0.730   19.55    6.06    2.73   0.000   0.200   0.000    0.00
   0.740   20.06    7.63    2.56   0.000   0.200   0.000    0.00
   0.750   19.65    6.94    2.41   0.000   0.200   0.000    0.00
   0.760   19.60    6.99    2.39   0.000   0.200   0.000    0.00
   0.770   18.96    7.64    2.73   0.000   0.200   0.000    0.00
   0.780   18.95    8.70    2.83   0.000   0.200   0.000    0.00
   0.790   18.80    8.30    3.18   0.000   0.200   0.000    0.00
   0.800   18.84    8.28    3.24   0.000   0.200   0.000    0.00
   0.810   18.94    7.56    3.40   0.000   0.200   0.000    0.00
   0.820   19.23    9.15    3.55   0.000   0.200   0.000    0.00
   0.830   19.69    8.99    3.50   0.000   0.200   0.000    0.00
   0.840   19.51    9.27    3.75   0.000   0.200   0.000    0.00
   0.850   19.26    9.11    3.70   0.000   0.200   0.000    0.00
   0.860   19.61    9.39    3.35   0.000   0.200   0.000    0.00
   0.870   19.73    8.22    3.23   0.000   0.200   0.000    0.00
   0.880   19.44    7.26    2.91   0.000   0.200   0.000    0.00
   0.890   19.65    6.22    2.92   0.000   0.200   0.000    0.00
   0.900   19.41    5.87    3.19   0.000   0.200   0.000    0.00
   0.910   19.41    6.81    4.08   0.000   0.200   0.000    0.00
   0.920   19.82    6.80    3.79   0.000   0.200   0.000    0.00
   0.930   20.26    5.22    4.02   0.000   0.200   0.000    0.00
   0.940   20.03    5.99    4.22   0.000   0.200   0.000    0.00
   0.950   19.73    4.84    3.68   0.000   0.200   0.000    0.00
   0.960   19.77    2.80    3.93   0.000   0.200   0.000    0.00
   0.970   19.63    1.89    4.44   0.000   0.200   0.000    0.00
   0.980   19.73    2.46    3.57   0.000   0.200   0.000    0.00
   0.990   19.42    2.94    3.70   0.000   0.200   0.000    0.00
   1.000   20.09    3.44    4.27   0.000   0.200   0.000    0.00
   1.010   19.71    2.64    4.35   0.000   0.200   0.000    0.00
   1.020   20.06    3.85    4.08   0.000   0.200   0.000    0.00
   1.030   19.82    4.81    3.77   0.000   0.200   0.000    0.00
   1.040   19.62    3.19    3.75   0.000   0.200   0.000    0.00
   1.050   20.06    3.28    3.69   0.000   0.200   0.000    0.00
   1.060   20.05    3.07    3.25   0.000   0.200   0.000    0.00
   1.070   20.56    2.86    2.81   0.000   0.200   0.000    0.00
   1.080   20.95    1.85    2.78   0.000   0.200   0.000    0.00
   1.090   20.86    2.68    2.72   0.000   0.200   0.000    0.00
   1.100   20.54    4.35    2.20   0.000   0.200   0.000    0.00
   1.110   20.23    4.33    1.57   0.000   0.200   0.000    0.00
   1.120   20.29    4.71    1.30   0.000   0.200   0.000    0.00
   1.130   19.99    6.34    1.39   0.000   0.200   0.000    0.00
   1.140   19.65    7.44    1.00   0.000   0.200   0.000    0.00
   1.150   20.13    7.07    0.97   0.000   0.200   0.000    0.00
   1.160   19.18    5.78    1.07   0.000   0.200   0.000    0.00
   1.170   19.04    5.32    1.21   0.000   0.200   0.000    0.00
   1.180   19.27    4.40    1.18   0.000   0.200   0.000    0.00
   1.190   19.21    5.48    1.46   0.000   0.200   0.000    0.00
   1.200   19.38    5.68    1.31   0.000   0.200   0.000    0.00
   1.210   19.46    6.24    1.39   0.000   0.200   0.000    0.00
   1.220   18.68    7.03    1.89   0.000   0.200   0.000    0.00
   1.230   18.78    7.90    1.81   0.000   0.200   0.000    0.00
   1.240   19.13    9.54    1.78   0.000   0.200   0.000    0.00
   1.250   19.06    7.75    1.79   0.000   0.200   0.000    0.00
   1.260   18.81    7.42    1.75   0.000   0.200   0.000    0.00
   1.270   18.47    6.74    1.67   0.000   0.200   0.000    0.00
   1.280   19.24    6.15    1.84   0.000   0.200   0.000    0.00
   1.290   19.48    4.98    1.77   0.000   0.200   0.000    0.00
   1.300   20.01    4.26    1.88   0.000   0.200   0.000    0.00
   1.310   20.07    3.76    1.93   0.000   0.200   0.000    0.00
   1.320   19.95    2.97    1.81   0.000   0.200   0.000    0.00
   1.330   20.25    2.61    2.38   0.000   0.200   0.000    0.00
   1.340   20.18    2.35    3.06   0.000   0.200   0.000    0.00
   1.350   20.27    2.08    3.20   0.000   0.200   0.000    0.00
   1.360   19.82    1.29    3.35   0.000   0.200   0.000    0.00
   1.370   19.45    2.17    3.17   0.000   0.200   0.000    0.00
   1.380   19.58    2.99    3.14   0.000   0.200   0.000    0.00
   1.390   19.61    2.59    2.97   0.000   0.200   0.000    0.00
   1.400   19.38    3.09    2.51   0.000   0.200   0.000    0.00
   1.410   19.42    2.73    2.61   0.000   0.200   0.000    0.00
   1.420   19.25    1.71    2.47   0.000   0.200   0.000    0.00
   1.430   19.37   -0.48    2.99   0.000   0.200   0.000    0.00
   1.440   19.44   -1.37    2.84   0.000   0.200   0.000    0.00
   1.450   18.99   -0.59    2.95   0.000   0.200   0.000    0.00
   1.460   19.42   -0.73    3.26   0.000   0.200   0.000    0.00
   1.470   18.94   -0.80    3.84   0.000   0.200   0.000    0.00
   1.480   18.63   -2.15    4.32   0.000   0.200   0.000    0.00
   1.490   18.88    0.06    4.41   0.000   0.200   0.000    0.00
   1.500   18.77   -1.64    3.43   0.000   0.200   0.000    0.00
   1.510   19.38   -1.41    3.39   0.000   0.200   0.000    0.00
   1.520   19.98   -2.60    3.43   0.000   0.200   0.000    0.00
   1.530   19.61   -2.11    3.33   0.000   0.200   0.000    0.00
   1.540   19.70   -0.93    3.05   0.000   0.200   0.000    0.00
   1.550   20.28   -0.43    3.08   0.000   0.200   0.000    0.00
   1.560   20.75   -1.02    2.76   0.000   0.200   0.000    0.00
   1.570   20.55   -2.31    2.87   0.000   0.200   0.000    0.00
   1.580   20.52   -3.31    2.57   0.000   0.200   0.000    0.00
   1.590   20.48   -3.89    2.21   0.000   0.200   0.000    0.00
   1.600   20.18   -3.73    2.58   0.000   0.200   0.000    0.00
   1.610   20.56   -2.75    2.55   0.000   0.200   0.000    0.00
   1.620   20.07   -3.94    2.57   0.000   0.200   0.000    0.00
   1.630   20.15   -2.36    1.81   0.000   0.200   0.000    0.00
   1.640   19.76   -3.22    1.66   0.000   0.200   0.000    0.00
   1.650   20.13   -3.49    1.80   0.000   0.200   0.000    0.00
   1.660   19.86   -3.32    2.19   0.000   0.200   0.000    0.00
   1.670   20.49   -3.42    2.64   0.000   0.200   0.000    0.00
   1.680   20.52   -2.73    2.55   0.000   0.200   0.000    0.00
   1.690   21.01   -1.73    2.98   0.000   0.200   0.000    0.00
   1.700   20.89   -1.81    2.27   0.000   0.200   0.000    0.00
   1.710   20.94   -2.47    2.31   0.000   0.200   0.000    0.00
   1.720   21.06   -1.69    2.74   0.000   0.200   0.000    0.00
   1.730   20.78   -0.61    2.35   0.000   0.200   0.000    0.00
   1.740   20.71   -0.66    2.17   0.000   0.200   0.000    0.00
   1.750   20.99   -3.03    2.30   0.000   0.200   0.000    0.00
   1.760   21.52   -2.71    2.39   0.000   0.200   0.000    0.00
   1.770   21.38   -4.51    2.33   0.000   0.200   0.000    0.00
   1.780   21.51   -4.50    2.77   0.000   0.200   0.000    0.00
   1.790   21.17   -4.44    2.88   0.000   0.200   0.000    0.00
   1.800   21.78   -2.74    2.64   0.000   0.200   0.000    0.00
   1.810   21.85   -3.90    2.89   0.000   0.200   0.000    0.00
   1.820   21.54   -2.42    2.70   0.000   0.200   0.000    0.00
   1.830   20.98   -3.40    2.08   0.000   0.200   0.000    0.00
   1.840   21.03   -2.85    2.05   0.000   0.200   0.000    0.00
   1.850   21.31   -2.93    2.08   0.000   0.200   0.000    0.00
   1.860   21.40   -3.39    2.25   0.000   0.200   0.000    0.00
   1.870   21.16   -4.18    1.96   0.000   0.200   0.000    0.00
   1.880   21.09   -4.84    2.01   0.000   0.200   0.000    0.00
   1.890   21.12   -4.33    1.83   0.000   0.200   0.000    0.00
   1.900   21.09   -4.85    1.79   0.000   0.200   0.000    0.00
   1.910   21.61   -7.38    0.95   0.000   0.200   0.000    0.00
   1.920   21.00   -8.29    0.41   0.000   0.200   0.000    0.00
   1.930   20.77   -8.51    1.06   0.000   0.200   0.000    0.00
   1.940   21.04   -7.23    1.29   0.000   0.200   0.000    0.00
   1.950   21.20   -7.33    1.25   0.000   0.200   0.000    0.00
   1.960   21.05   -9.21    0.99   0.000   0.200   0.000    0.00
   1.970   20.79   -7.83    0.95   0.000   0.200   0.000    0.00
   1.980   20.52   -6.07    0.50   0.000   0.200   0.000    0.00
   1.990   20.61   -7.01    0.26   0.000   0.200   0.000    0.00
   2.000   21.07   -6.63   -0.01   0.000   0.200   0.000    0.00
   2.010   21.07   -5.23   -0.41   0.000   0.200   0.000    0.00
   2.020   20.93   -4.96    0.29   0.000   0.200   0.000    0.00
   2.030   21.03   -5.87   -0.16   0.000   0.200   0.000    0.00
   2.040   20.81   -4.72   -0.11   0.000   0.200   0.000    0.00
   2.050   20.63   -3.15    0.09   0.000   0.200   0.000    0.00
   2.060   20.68   -2.75    0.59   0.000   0.200   0.000    0.00
   2.070   20.81   -1.97    0.38   0.000   0.200   0.000    0.00
   2.080   20.52   -0.29    0.32   0.000   0.200   0.000    0.00
   2.090   20.56    0.73    0.74   0.000   0.200   0.000    0.00
   2.100   20.61    0.01    0.87   0.000   0.200   0.000    0.00
   2.110   20.71   -2.09    0.80   0.000   0.200   0.000    0.00
   2.120   20.57   -3.00    0.48   0.000   0.200   0.000    0.00
   2.130   20.58   -4.00    0.31   0.000   0.200   0.000    0.00
   2.140   20.14   -2.96    0.25   0.000   0.200   0.000    0.00
   2.150   19.79   -4.37    0.44   0.000   0.200   0.000    0.00
   2.160   20.12   -4.35    0.41   0.000   0.200   0.000    0.00
   2.170   19.56   -5.14    0.73   0.000   0.200   0.000    0.00
   2.180   19.57   -4.47    0.49   0.000   0.200   0.000    0.00
   2.190   19.72   -2.92    0.33   0.000   0.200   0.000    0.00
   2.200   19.99   -3.80    0.21   0.000   0.200   0.000    0.00
   2.210   19.58   -3.05    0.31   0.000   0.200   0.000    0.00
   2.220   19.69   -5.05    1.00   0.000   0.200   0.000    0.00
   2.230   20.19   -4.89    1.18   0.000   0.200   0.000    0.00
   2.240   20.17   -5.48    1.83   0.000   0.200   0.000    0.00
   2.250   19.96   -6.76    1.14   0.000   0.200   0.000    0.00
   2.260   19.95   -6.74    0.94   0.000   0.200   0.000    0.00
   2.270   19.88   -6.61    1.11   0.000   0.200   0.000    0.00
   2.280   19.22   -4.30    1.16   0.000   0.200   0.000    0.00
   2.290   19.84   -3.55    1.25   0.000   0.200   0.000    0.00
   2.300   20.05   -3.71    1.27   0.000   0.200   0.000    0.00
   2.310   20.36   -5.05    1.44   0.000   0.200   0.000    0.00
   2.320   20.58   -4.31    1.52   0.000   0.200   0.000    0.00
   2.330   20.46   -3.79    1.42   0.000   0.200   0.000    0.00
   2.340   20.47   -5.10    1.84   0.000   0.200   0.000    0.00
   2.350   20.27   -4.79    2.85   0.000   0.200   0.000    0.00
   2.360   20.03   -5.68    2.89   0.000   0.200   0.000    0.00
   2.370   19.82   -5.12    2.98   0.000   0.200   0.000    0.00
   2.380   19.88   -4.77    2.81   0.000   0.200   0.000    0.00
   2.390   20.22   -6.13    3.19   0.000   0.200   0.000    0.00
   2.400   20.62   -7.04    2.97   0.000   0.200   0.000    0.00
   2.410   20.05   -6.47    2.75   0.000   0.200   0.000    0.00
   2.420   19.69   -6.07    2.79   0.000   0.200   0.000    0.00
   2.430   20.22   -5.34    2.92   0.000   0.200   0.000    0.00
   2.440   20.55   -6.80    2.41   0.000   0.200   0.000    0.00
   2.450   20.79   -7.67    2.56   0.000   0.200   0.000    0.00
   2.460   20.58   -6.20    2.38   0.000   0.200   0.000    0.00
   2.470   20.46   -5.92    1.74   0.000   0.200   0.000    0.00
   2.480   20.48   -6.03    1.50   0.000   0.200   0.000    0.00
   2.490   20.34   -6.31    1.00   0.000   0.200   0.000    0.00
   2.500   20.19   -6.72    0.95   0.000   0.200   0.000    0.00
   2.510   20.01   -6.66    1.40   0.000   0.200   0.000    0.00
   2.520   20.12   -7.03    1.43   0.000   0.200   0.000    0.00
   2.530   19.85   -8.50    1.29   0.000   0.200   0.000    0.00
   2.540   20.04   -9.45    0.87   0.000   0.200   0.000    0.00
   2.550   20.06   -8.76    0.73   0.000   0.200   0.000    0.00
   2.560   20.04   -7.04    0.41   0.000   0.200   0.000    0.00
   2.570   19.87   -6.96    1.12   0.000   0.200   0.000    0.00
   2.580   19.86   -7.57    1.63   0.000   0.200   0.000    0.00
   2.590   19.61   -8.83    1.69   0.000   0.200   0.000    0.00
   2.600   19.57  -10.25    1.77   0.000   0.200   0.000    0.00
   2.610   19.58  -10.47    2.04   0.000   0.200   0.000    0.00
   2.620   20.01  -11.46    2.07   0.000   0.200   0.000    0.00
   2.630   19.78  -10.31    2.19   0.000   0.200   0.000    0.00
   2.640   19.79   -9.67    1.63   0.000   0.200   0.000    0.00
   2.650   19.40   -9.37    2.20   0.000   0.200   0.000    0.00
   2.660   19.08   -9.81    1.53   0.000   0.200   0.000    0.00
   2.670   19.03  -10.02    0.96   0.000   0.200   0.000    0.00
   2.680   18.70   -9.49    1.64   0.000   0.200   0.000    0.00
   2.690   18.82   -8.14    1.48   0.000   0.200   0.000    0.00
   2.700   18.92   -6.80    1.74   0.000   0.200   0.000    0.00
   2.710   18.44   -8.04    1.64   0.000   0.200   0.000    0.00
   2.720   18.75   -7.52    1.44   0.000   0.200   0.000    0.00
   2.730   18.98   -7.97    1.63   0.000   0.200   0.000    0.00
   2.740   18.38   -9.73    1.86   0.000   0.200   0.000    0.00
   2.750   18.00   -9.89    1.33   0.000   0.200   0.000    0.00
   2.760   18.84   -9.41    1.38   0.000   0.200   0.000    0.00
   2.770   18.77   -9.41    1.44   0.000   0.200   0.000    0.00
   2.780   18.43  -10.22    1.19   0.000   0.200   0.000    0.00
   2.790   18.63   -9.98    0.88   0.000   0.200   0.000    0.00
   2.800   18.32   -8.03    1.34   0.000   0.200   0.000    0.00
   2.810   18.78   -7.12    1.44   0.000   0.200   0.000    0.00
   2.820   19.04   -6.82    1.03   0.000   0.200   0.000    0.00
   2.830   18.86   -6.35    0.63   0.000   0.200   0.000    0.00
   2.840   18.67   -6.47    0.82   0.000   0.200   0.000    0.00
   2.850   18.62   -6.49    0.43   0.000   0.200   0.000    0.00
   2.860   18.42   -7.50    0.54   0.000   0.200   0.000    0.00
   2.870   19.22   -7.65    0.71   0.000   0.200   0.000    0.00
   2.880   19.75   -8.26    0.30   0.000   0.200   0.000    0.00
   2.890   19.76   -6.68   -0.14   0.000   0.200   0.000    0.00
   2.900   19.34   -6.34    0.56   0.000   0.200   0.000    0.00
   2.910   19.80   -6.94    1.09   0.000   0.200   0.000    0.00
   2.920   19.81   -7.61    1.30   0.000   0.200   0.000    0.00
   2.930   19.38   -7.51    1.10   0.000   0.200   0.000    0.00
   2.940   18.87   -7.55    0.91   0.000   0.200   0.000    0.00
   2.950   18.75   -8.04    1.42   0.000   0.200   0.000    0.00
   2.960   18.33   -8.09    1.18   0.000   0.200   0.000    0.00
   2.970   18.43   -6.69    1.51   0.000   0.200   0.000    0.00
   2.980   18.52   -5.73    1.05   0.000   0.200   0.000    0.00
   2.990   18.70   -5.87    1.23   0.000   0.200   0.000    0.00
   3.000   18.46   -6.10    1.34   0.000   0.200   0.000    0.00
   3.010   18.67   -6.23    1.17   0.000   0.200   0.000    0.00
   3.020   19.15   -6.65    0.83   0.000   0.200   0.000    0.00
   3.030   18.84   -5.85    0.86   0.000   0.200   0.000    0.00
   3.040   19.18   -6.79    0.85   0.000   0.200   0.000    0.00
   3.050   19.49   -6.20    1.18   0.000   0.200   0.000    0.00
   3.060   18.63   -8.48    0.93   0.000   0.200   0.000    0.00
   3.070   18.34   -8.71    0.73   0.000   0.200   0.000    0.00
   3.080   17.94   -8.18    0.85   0.000   0.200   0.000    0.00
   3.090   17.74   -6.58    1.06   0.000   0.200   0.000    0.00
   3.100   17.72   -6.97    1.37   0.000   0.200   0.000    0.00
   3.110   17.64   -7.48    1.55   0.000   0.200   0.000    0.00
   3.120   17.62   -8.27    1.73   0.000   0.200   0.000    0.00
   3.130   17.51   -7.09    2.09   0.000   0.200   0.000    0.00
   3.140   17.30   -6.09    2.45   0.000   0.200   0.000    0.00
   3.150   17.04   -6.53    2.27   0.000   0.200   0.000    0.00
   3.160   16.89   -5.98    2.77   0.000   0.200   0.000    0.00
   3.170   17.11   -6.05    2.97   0.000   0.200   0.000    0.00
   3.180   17.39   -6.06    3.21   0.000   0.200   0.000    0.00
   3.190   17.35   -5.94    3.73   0.000   0.200   0.000    0.00
   3.200   16.81   -6.50    3.72   0.000   0.200   0.000    0.00
   3.210   17.21   -4.76    3.85   0.000   0.200   0.000    0.00
   3.220   17.13   -4.08    3.65   0.000   0.200   0.000    0.00
   3.230   17.16   -4.45    3.26   0.000   0.200   0.000    0.00
   3.240   17.31   -3.38    3.24   0.000   0.200   0.000    0.00
   3.250   17.29   -5.20    3.23   0.000   0.200   0.000    0.00
   3.260   17.24   -4.68    3.32   0.000   0.200   0.000    0.00
   3.270   17.83   -4.20    3.18   0.000   0.200   0.000    0.00
   3.280   17.71   -5.05    3.82   0.000   0.200   0.000    0.00
   3.290   16.96   -6.02    3.78   0.000   0.200   0.000    0.00
   3.300   16.83   -6.35    3.35   0.000   0.200   0.000    0.00
   3.310   16.45   -5.40    3.51   0.000   0.200   0.000    0.00
   3.320   16.99   -4.44    3.69   0.000   0.200   0.000    0.00
   3.330   17.25   -4.53    3.26   0.000   0.200   0.000    0.00
   3.340   17.87   -5.31    3.50   0.000   0.200   0.000    0.00
   3.350   18.24   -4.26    3.81   0.000   0.200   0.000    0.00
   3.360   18.08   -4.00    3.45   0.000   0.200   0.000    0.00
   3.370   18.37   -3.87    2.87   0.000   0.200   0.000    0.00
   3.380   18.42   -2.75    3.21   0.000   0.200   0.000    0.00
   3.390   17.96   -2.38    3.57   0.000   0.200   0.000    0.00
   3.400   17.56   -2.19    3.25   0.000   0.200   0.000    0.00
   3.410   18.16   -1.81    3.50   0.000   0.200   0.000    0.00
   3.420   17.94   -3.08    3.28   0.000   0.200   0.000    0.00
   3.430   17.33   -0.74    3.58   0.000   0.200   0.000    0.00
   3.440   17.37   -0.21    3.38   0.000   0.200   0.000    0.00
   3.450   17.48   -0.75    3.76   0.000   0.200   0.000    0.00
   3.460   17.70   -0.95    3.75   0.000   0.200   0.000    0.00
   3.470   17.84   -2.26    3.65   0.000   0.200   0.000    0.00
   3.480   18.16    1.38    3.59   0.000   0.200   0.000    0.00
   3.490   18.33    1.56    3.56   0.000   0.200   0.000    0.00
   3.500   17.90   -0.63    3.37   0.000   0.200   0.000    0.00
   3.510   18.57   -0.77    3.84   0.000   0.200   0.000    0.00
   3.520   19.06   -2.18    4.24   0.000   0.200   0.000    0.00
   3.530   19.10   -1.04    4.52   0.000   0.200   0.000    0.00
   3.540   19.21   -0.39    3.93   0.000   0.200   0.000    0.00
   3.550   19.47   -1.13    3.18   0.000   0.200   0.000    0.00
   3.560   19.29   -0.32    2.75   0.000   0.200   0.000    0.00
   3.570   19.91   -1.21    3.22   0.000   0.200   0.000    0.00
   3.580   20.40   -0.57    3.56   0.000   0.200   0.000    0.00
   3.590   20.54    1.14    3.65   0.000   0.200   0.000    0.00
   3.600   20.62    1.01    3.59   0.000   0.200   0.000    0.00
   3.610   21.37    0.07    3.73   0.000   0.200   0.000    0.00
   3.620   21.49   -1.31    3.19   0.000   0.200   0.000    0.00
   3.630   21.12   -1.84    3.05   0.000   0.200   0.000    0.00
   3.640   20.80   -0.09    2.86   0.000   0.200   0.000    0.00
   3.650   21.28   -0.56    2.30   0.000   0.200   0.000    0.00
   3.660   21.14   -1.38    2.26   0.000   0.200   0.000    0.00
   3.670   21.30   -2.17    2.59   0.000   0.200   0.000    0.00
   3.680   21.40   -2.52    2.56   0.000   0.200   0.000    0.00
   3.690   21.59   -3.49    2.67   0.000   0.200   0.000    0.00
   3.700   21.20   -3.58    3.21   0.000   0.200   0.000    0.00
   3.710   21.18   -3.17    4.06   0.000   0.200   0.000    0.00
   3.720   21.33   -3.33    4.53   0.000   0.200   0.000    0.00
   3.730   20.80   -1.48    4.27   0.000   0.200   0.000    0.00
   3.740   20.72   -1.39    3.92   0.000   0.200   0.000    0.00
   3.750   20.14   -1.32    4.25   0.000   0.200   0.000    0.00
   3.760   19.84   -1.18    3.68   0.000   0.200   0.000    0.00
   3.770   20.16   -1.48    3.58   0.000   0.200   0.000    0.00
   3.780   20.32   -1.95    3.81   0.000   0.200   0.000    0.00
   3.790   20.33   -2.39    3.98   0.000   0.200   0.000    0.00
   3.800   19.90   -2.25    3.41   0.000   0.200   0.000    0.00
   3.810   19.66   -1.53    4.18   0.000   0.200   0.000    0.00
   3.820   19.64   -1.78    4.36   0.000   0.200   0.000    0.00
   3.830   19.28   -2.93    4.89   0.000   0.200   0.000    0.00
   3.840   19.05   -4.12    4.29   0.000   0.200   0.000    0.00
   3.850   18.78   -1.96    4.51   0.000   0.200   0.000    0.00
   3.860   18.75   -0.36    4.74   0.000   0.200   0.000    0.00
   3.870   18.16   -0.93    4.37   0.000   0.200   0.000    0.00
   3.880   18.57    0.04    4.51   0.000   0.200   0.000    0.00
   3.890   18.88   -2.22    4.42   0.000   0.200   0.000    0.00
   3.900   18.84   -0.76    4.47   0.000   0.200   0.000    0.00
   3.910   18.74    0.66    4.35   0.000   0.200   0.000    0.00
   3.920   18.85    1.62    3.80   0.000   0.200   0.000    0.00
   3.930   19.19    1.08    3.84   0.000   0.200   0.000    0.00
   3.940   19.95   -0.63    3.84   0.000   0.200   0.000    0.00
   3.950   19.80   -0.82    3.75   0.000   0.200   0.000    0.00
   3.960   20.06   -0.88    3.58   0.000   0.200   0.000    0.00
   3.970   20.28   -1.25    3.28   0.000   0.200   0.000    0.00
   3.980   20.31   -1.48    3.33   0.000   0.200   0.000    0.00
   3.990   20.02   -3.58    3.58   0.000   0.200   0.000    0.00
   4.000   19.60   -4.49    3.68   0.000   0.200   0.000    0.00
   4.010   19.65   -5.52    3.82   0.000   0.200   0.000    0.00
   4.020   19.40   -6.43    3.38   0.000   0.200   0.000    0.00
   4.030   19.20   -7.05    3.00   0.000   0.200   0.000    0.00
   4.040   19.70   -6.32    2.85   0.000   0.200   0.000    0.00
   4.050   19.61   -5.98    3.82   0.000   0.200   0.000    0.00
   4.060   19.82   -4.09    3.94   0.000   0.200   0.000    0.00
   4.070   19.68   -4.27    4.13   0.000   0.200   0.000    0.00
   4.080   20.46   -5.39    4.50   0.000   0.200   0.000    0.00
   4.090   20.79   -3.42    4.27   0.000   0.200   0.000    0.00
   4.100   20.73   -2.76    4.50   0.000   0.200   0.000    0.00
   4.110   20.72   -2.26    4.46   0.000   0.200   0.000    0.00
   4.120   20.71   -3.20    3.55   0.000   0.200   0.000    0.00
   4.130   20.67   -2.35    3.40   0.000   0.200   0.000    0.00
   4.140   20.95   -2.61    3.61   0.000   0.200   0.000    0.00
   4.150   21.03   -2.51    3.96   0.000   0.200   0.000    0.00
   4.160   21.50   -2.03    3.96   0.000   0.200   0.000    0.00
   4.170   21.31   -2.63    4.34   0.000   0.200   0.000    0.00
   4.180   21.35   -2.01    4.01   0.000   0.200   0.000    0.00
   4.190   21.79   -1.72    4.02   0.000   0.200   0.000    0.00
   4.200   21.93   -2.06    3.39   0.000   0.200   0.000    0.00
   4.210   21.44   -1.61    3.83   0.000   0.200   0.000    0.00
   4.220   21.08   -1.82    3.46   0.000   0.200   0.000    0.00
   4.230   20.89   -2.02    3.59   0.000   0.200   0.000    0.00
   4.240   21.00   -1.89    3.17   0.000   0.200   0.000    0.00
   4.250   21.15   -0.61    3.59   0.000   0.200   0.000    0.00
   4.260   21.00    0.23    4.21   0.000   0.200   0.000    0.00
   4.270   21.34   -0.40    4.26   0.000   0.200   0.000    0.00
   4.280   21.18    0.23    3.64   0.000   0.200   0.000    0.00
   4.290   20.73    0.13    3.68   0.000   0.200   0.000    0.00
   4.300   20.70   -0.36    3.10   0.000   0.200   0.000    0.00
   4.310   21.08    0.10    2.92   0.000   0.200   0.000    0.00
   4.320   21.25    0.90    3.49   0.000   0.200   0.000    0.00
   4.330   21.51    1.66    3.86   0.000   0.200   0.000    0.00
   4.340   21.59    0.94    3.99   0.000   0.200   0.000    0.00
   4.350   21.34    1.52    4.14   0.000   0.200   0.000    0.00
   4.360   21.28    1.18    4.10   0.000   0.200   0.000    0.00
   4.370   21.26    1.64    4.13   0.000   0.200   0.000    0.00
   4.380   20.83    1.58    4.62   0.000   0.200   0.000    0.00
   4.390   21.27    2.80    5.06   0.000   0.200   0.000    0.00
   4.400   21.04    1.80    4.98   0.000   0.200   0.000    0.00
   4.410   20.54    1.70    4.54   0.000   0.200   0.000    0.00
   4.420   20.61    0.32    4.97   0.000   0.200   0.000    0.00
   4.430   21.00   -0.83    4.92   0.000   0.200   0.000    0.00
   4.440   21.02    0.56    4.70   0.000   0.200   0.000    0.00
   4.450   21.52   -0.51    4.37   0.000   0.200   0.000    0.00
   4.460   21.46   -1.21    3.91   0.000   0.200   0.000    0.00
   4.470   21.60   -0.40    4.11   0.000   0.200   0.000    0.00
   4.480   21.93   -2.15    4.44   0.000   0.200   0.000    0.00
   4.490   21.62   -2.59    4.03   0.000   0.200   0.000    0.00
   4.500   21.66   -2.06    4.14   0.000   0.200   0.000    0.00
   4.510   21.75   -2.80    4.24   0.000   0.200   0.000    0.00
   4.520   21.64   -2.30    3.91   0.000   0.200   0.000    0.00
   4.530   22.19   -2.63    3.73   0.000   0.200   0.000    0.00
   4.540   22.01   -2.33    4.00   0.000   0.200   0.000    0.00