! This hub-height wind-speed file was generated by TurbSim (from OpenFAST--128-NOTFOUND) on 23-Aug-2023 at 09:41:11.
!
! The requested statistics for this data were:
!    Mean Total Wind Speed =   20.000 m/s
!    Turbulence Intensity  =   14.420%
!
!   Time  HorSpd  WndDir  VerSpd  HorShr  VerShr  LnVShr  GstSpd
!  (sec)   (m/s)   (deg)   (m/s)     (-)     (-)     (-)   (m/s)
   0.000   23.18   -5.42    2.46   0.000   0.200   0.000    0.00
   0.010   23.47   -5.30    2.35   0.000   0.200   0.000    0.00
   0.020   24.21   -5.23    2.50   0.000   0.200   0.000    0.00
   0.030   23.94   -5.82    2.66   0.000   0.200   0.000    0.00
   0.040   23.51   -5.47    3.12   0.000   0.200   0.000    0.00
   0.050   23.57   -5.63    2.93   0.000   0.200   0.000    0.00
   0.060   23.16   -6.17    2.92   0.000   0.200   0.000    0.00
   0.070   23.54   -4.49    2.36   0.000   0.200   0.000    0.00
   0.080   23.23   -3.43    1.81   0.000   0.200   0.000    0.00
   0.090   23.23   -2.60    1.87   0.000   0.200   0.000    0.00
   0.100   23.17   -3.17    1.71   0.000   0.200   0.000    0.00
   0.110   23.19   -3.84    1.51   0.000   0.200   0.000    0.00
   0.120   22.94   -4.66    1.68   0.000   0.200   0.000    0.00
   0.130   22.74   -4.02    1.12   0.000   0.200   0.000    0.00
   0.140   22.82   -2.42    0.66   0.000   0.200   0.000    0.00
   0.150   22.56   -1.05    1.05   0.000   0.200   0.000    0.00
   0.160   22.78   -2.23    0.81   0.000   0.200   0.000    0.00
   0.170   22.44   -2.54    1.04   0.000   0.200   0.000    0.00
   0.180   22.87   -2.17    0.71   0.000   0.200   0.000    0.00
   0.190   23.00   -2.33    0.12   0.000   0.200   0.000    0.00
   0.200   22.84   -3.45    0.25   0.000   0.200   0.000    0.00
   0.210   22.92   -1.68    1.00   0.000   0.200   0.000    0.00
   0.220   22.93    0.40    0.96   0.000   0.200   0.000    0.00
   0.230   22.65   -0.21    0.77   0.000   0.200   0.000    0.00
   0.240   22.67   -1.37    0.46   0.000   0.200   0.000    0.00
   0.250   22.72   -1.25    1.20   0.000   0.200   0.000    0.00
   0.260   22.79   -0.99    0.61   0.000   0.200   0.000    0.00
   0.270   22.99   -1.79    0.96   0.000   0.200   0.000    0.00
   0.280   23.08   -0.89    1.46   0.000   0.200   0.000    0.00
   0.290   22.85   -0.09    1.31   0.000   0.200   0.000    0.00
   0.300   22.45    0.65    1.28   0.000   0.200   0.000    0.00
   0.310   22.21    0.37    1.57   0.000   0.200   0.000    0.00
   0.320   22.59    2.11    1.81   0.000   0.200   0.000    0.00
   0.330   22.62    1.18    1.57   0.000   0.200   0.000    0.00
   0.340   22.32    2.13    1.04   0.000   0.200   0.000    0.00
   0.350   22.79    3.17    0.85   0.000   0.200   0.000    0.00
   0.360   22.76    1.71    1.20   0.000   0.200   0.000    0.00
   0.370   22.81    0.16    0.84   0.000   0.200   0.000    0.00
   0.380   22.49    0.53    0.52   0.000   0.200   0.000    0.00
   0.390   22.18    1.58    1.39   0.000   0.200   0.000    0.00
   0.400   21.92    0.61    1.50   0.000   0.200   0.000    0.00
   0.410   22.00    0.37    1.54   0.000   0.200   0.000    0.00
   0.420   21.76    0.78    1.26   0.000   0.200   0.000    0.00
   0.430   21.25    1.24    1.33   0.000   0.200   0.000    0.00
   0.440   21.94    0.78    0.93   0.000   0.200   0.000    0.00
   0.450   22.14   -0.93    1.01   0.000   0.200   0.000    0.00
   0.460   22.54   -0.67    0.53   0.000   0.200   0.000    0.00
   0.470   22.91    0.08    0.38   0.000   0.200   0.000    0.00
   0.480   22.39   -1.55    0.81   0.000   0.200   0.000    0.00
   0.490   22.75   -3.30    1.25   0.000   0.200   0.000    0.00
   0.500   23.20   -4.58    1.26   0.000   0.200   0.000    0.00
   0.510   22.71   -3.32    0.94   0.000   0.200   0.000    0.00
   0.520   22.94   -4.13    1.07   0.000   0.200   0.000    0.00
   0.530   23.01   -5.03    1.30   0.000   0.200   0.000    0.00
   0.540   22.97   -6.46    0.88   0.000   0.200   0.000    0.00
   0.550   22.84   -6.10    0.41   0.000   0.200   0.000    0.00
   0.560   22.96   -6.77    0.43   0.000   0.200   0.000    0.00
   0.570   23.22   -8.11    0.68   0.000   0.200   0.000    0.00
   0.580   23.20   -7.32    0.66   0.000   0.200   0.000    0.00
   0.590   22.69   -7.57    0.53   0.000   0.200   0.000    0.00
   0.600   22.69   -8.38    0.80   0.000   0.200   0.000    0.00
   0.610   22.44   -7.21    1.08   0.000   0.200   0.000    0.00
   0.620   22.68   -8.06    1.15   0.000   0.200   0.000    0.00
   0.630   22.60   -7.44    1.34   0.000   0.200   0.000    0.00
   0.640   22.54   -5.64    1.42   0.000   0.200   0.000    0.00
   0.650   22.65   -5.71    1.37   0.000   0.200   0.000    0.00
   0.660   22.22   -4.04    1.45   0.000   0.200   0.000    0.00
   0.670   21.94   -5.76    1.35   0.000   0.200   0.000    0.00
   0.680   22.08   -6.69    1.24   0.000   0.200   0.000    0.00
   0.690   22.14   -5.74    0.73   0.000   0.200   0.000    0.00
   0.700   22.56   -4.89    0.65   0.000   0.200   0.000    0.00
   0.710   23.09   -4.99    0.33   0.000   0.200   0.000    0.00
   0.720   23.22   -4.67    0.47   0.000   0.200   0.000    0.00
   0.730   23.77   -5.98    0.83   0.000   0.200   0.000    0.00
   0.740   23.42   -5.29    1.23   0.000   0.200   0.000    0.00
   0.750   22.77   -4.48    1.63   0.000   0.200   0.000    0.00
   0.760   22.91   -5.14    1.15   0.000   0.200   0.000    0.00
   0.770   22.58   -5.38    0.58   0.000   0.200   0.000    0.00
   0.780   22.94   -4.67    0.89   0.000   0.200   0.000    0.00
   0.790   22.85   -3.78    0.65   0.000   0.200   0.000    0.00
   0.800   22.60   -3.74    0.59   0.000   0.200   0.000    0.00
   0.810   22.82   -2.59    0.24   0.000   0.200   0.000    0.00
   0.820   22.67   -3.24    0.73   0.000   0.200   0.000    0.00
   0.830   22.46   -2.56    0.73   0.000   0.200   0.000    0.00
   0.840   22.43   -1.58    0.54   0.000   0.200   0.000    0.00
   0.850   22.17   -1.09   -0.34   0.000   0.200   0.000    0.00
   0.860   21.90   -3.21   -0.43   0.000   0.200   0.000    0.00
   0.870   21.63   -3.15   -0.29   0.000   0.200   0.000    0.00
   0.880   21.55   -2.99   -0.74   0.000   0.200   0.000    0.00
   0.890   21.53   -2.64   -0.71   0.000   0.200   0.000    0.00
   0.900   21.65   -3.38   -0.15   0.000   0.200   0.000    0.00
   0.910   21.66   -2.30    0.33   0.000   0.200   0.000    0.00
   0.920   21.26   -2.11    0.23   0.000   0.200   0.000    0.00
   0.930   21.29   -2.94    0.24   0.000   0.200   0.000    0.00
   0.940   21.35   -3.45    0.50   0.000   0.200   0.000    0.00
   0.950   21.42   -3.79    0.35   0.000   0.200   0.000    0.00
   0.960   21.64   -5.12    0.70   0.000   0.200   0.000    0.00
   0.970   21.70   -4.29    0.47   0.000   0.200   0.000    0.00
   0.980   21.74   -4.23    0.76   0.000   0.200   0.000    0.00
   0.990   21.66   -5.54    1.01   0.000   0.200   0.000    0.00
   1.000   21.95   -5.78    0.69   0.000   0.200   0.000    0.00
   1.010   22.15   -7.28    1.11   0.000   0.200   0.000    0.00
   1.020   21.55   -6.57    0.69   0.000   0.200   0.000    0.00
   1.030   22.24   -6.58    0.91   0.000   0.200   0.000    0.00
   1.040   22.09   -6.16    0.74   0.000   0.200   0.000    0.00
   1.050   22.08   -6.02    0.68   0.000   0.200   0.000    0.00
   1.060   22.31   -5.22    0.57   0.000   0.200   0.000    0.00
   1.070   22.17   -4.52    0.35   0.000   0.200   0.000    0.00
   1.080   22.31   -4.53    0.17   0.000   0.200   0.000    0.00
   1.090   22.14   -4.28    0.09   0.000   0.200   0.000    0.00
   1.100   21.31   -4.51    0.57   0.000   0.200   0.000    0.00
   1.110   21.46   -5.20    0.63   0.000   0.200   0.000    0.00
   1.120   21.57   -4.79    0.70   0.000   0.200   0.000    0.00
   1.130   21.38   -3.44    0.20   0.000   0.200   0.000    0.00
   1.140   22.10   -4.36    0.94   0.000   0.200   0.000    0.00
   1.150   22.68   -4.02    0.12   0.000   0.200   0.000    0.00
   1.160   22.22   -4.88    0.04   0.000   0.200   0.000    0.00
   1.170   22.26   -3.90    0.54   0.000   0.200   0.000    0.00
   1.180   22.38   -5.78    0.99   0.000   0.200   0.000    0.00
   1.190   22.67   -7.38    1.20   0.000   0.200   0.000    0.00
   1.200   22.65   -6.77    0.59   0.000   0.200   0.000    0.00
   1.210   22.40   -6.66    0.87   0.000   0.200   0.000    0.00
   1.220   22.40   -5.99    0.43   0.000   0.200   0.000    0.00
   1.230   22.94   -6.84    0.49   0.000   0.200   0.000    0.00
   1.240   23.35   -6.90    0.55   0.000   0.200   0.000    0.00
   1.250   23.01   -7.68    1.02   0.000   0.200   0.000    0.00
   1.260   23.00   -8.11    0.97   0.000   0.200   0.000    0.00
   1.270   23.02   -7.67    0.71   0.000   0.200   0.000    0.00
   1.280   22.57  -10.31    0.52   0.000   0.200   0.000    0.00
   1.290   22.93   -9.57    0.08   0.000   0.200   0.000    0.00
   1.300   23.34   -8.88    0.61   0.000   0.200   0.000    0.00
   1.310   23.21   -8.88    0.32   0.000   0.200   0.000    0.00
   1.320   23.26   -8.74    0.29   0.000   0.200   0.000    0.00
   1.330   22.93   -9.82    0.54   0.000   0.200   0.000    0.00
   1.340   22.30   -9.80    0.74   0.000   0.200   0.000    0.00
   1.350   22.07  -10.89    1.18   0.000   0.200   0.000    0.00
   1.360   22.04  -10.54    0.82   0.000   0.200   0.000    0.00
   1.370   21.69  -10.18    0.87   0.000   0.200   0.000    0.00
   1.380   21.40  -12.10    0.84   0.000   0.200   0.000    0.00
   1.390   21.69  -10.77    0.16   0.000   0.200   0.000    0.00
   1.400   21.88  -10.58    0.17   0.000   0.200   0.000    0.00
   1.410   21.66  -10.69    0.31   0.000   0.200   0.000    0.00
   1.420   21.78  -11.01    0.55   0.000   0.200   0.000    0.00
   1.430   22.14  -10.13    1.25   0.000   0.200   0.000    0.00
   1.440   22.21   -9.17    1.74   0.000   0.200   0.000    0.00
   1.450   22.21  -11.18    1.56   0.000   0.200   0.000    0.00
   1.460   22.80  -11.99    1.57   0.000   0.200   0.000    0.00
   1.470   22.82  -10.24    2.08   0.000   0.200   0.000    0.00
   1.480   22.89  -10.01    1.63   0.000   0.200   0.000    0.00
   1.490   22.66  -11.75    2.18   0.000   0.200   0.000    0.00
   1.500   22.51  -11.74    2.19   0.000   0.200   0.000    0.00
   1.510   22.51  -10.81    2.02   0.000   0.200   0.000    0.00
   1.520   22.93   -9.65    1.93   0.000   0.200   0.000    0.00
   1.530   22.50   -8.17    1.82   0.000   0.200   0.000    0.00
   1.540   22.23   -7.16    1.54   0.000   0.200   0.000    0.00
   1.550   22.40   -6.72    1.51   0.000   0.200   0.000    0.00
   1.560   22.54   -5.78    1.42   0.000   0.200   0.000    0.00
   1.570   22.95   -7.05    1.70   0.000   0.200   0.000    0.00
   1.580   22.82   -6.69    1.47   0.000   0.200   0.000    0.00
   1.590   22.54   -5.10    1.69   0.000   0.200   0.000    0.00
   1.600   22.50   -6.07    1.65   0.000   0.200   0.000    0.00
   1.610   22.68   -5.63    1.66   0.000   0.200   0.000    0.00
   1.620   22.60   -3.75    1.79   0.000   0.200   0.000    0.00
   1.630   22.63   -3.00    2.01   0.000   0.200   0.000    0.00
   1.640   22.06   -4.53    1.70   0.000   0.200   0.000    0.00
   1.650   21.88   -5.26    2.04   0.000   0.200   0.000    0.00
   1.660   21.84   -7.11    1.57   0.000   0.200   0.000    0.00
   1.670   21.78   -4.53    1.05   0.000   0.200   0.000    0.00
   1.680   22.70   -3.53    0.35   0.000   0.200   0.000    0.00
   1.690   22.76   -4.68   -0.18   0.000   0.200   0.000    0.00
   1.700   22.63   -4.68    0.84   0.000   0.200   0.000    0.00
   1.710   22.41   -3.98    1.23   0.000   0.200   0.000    0.00
   1.720   22.25   -3.14    1.41   0.000   0.200   0.000    0.00
   1.730   21.97   -2.27    1.35   0.000   0.200   0.000    0.00
   1.740   22.02   -1.65    0.87   0.000   0.200   0.000    0.00
   1.750   21.84   -2.10    0.58   0.000   0.200   0.000    0.00
   1.760   21.47   -4.11    0.18   0.000   0.200   0.000    0.00
   1.770   20.92   -2.96   -0.23   0.000   0.200   0.000    0.00
   1.780   20.86   -0.46   -0.65   0.000   0.200   0.000    0.00
   1.790   21.00    0.23   -1.11   0.000   0.200   0.000    0.00
   1.800   21.03   -1.15   -0.81   0.000   0.200   0.000    0.00
   1.810   20.90   -0.22   -0.51   0.000   0.200   0.000    0.00
   1.820   20.62   -1.08   -0.56   0.000   0.200   0.000    0.00
   1.830   20.74   -2.55   -0.51   0.000   0.200   0.000    0.00
   1.840   20.98   -3.11   -0.57   0.000   0.200   0.000    0.00
   1.850   21.41   -3.09   -0.58   0.000   0.200   0.000    0.00
   1.860   21.33   -1.80   -0.68   0.000   0.200   0.000    0.00
   1.870   21.09   -3.06   -1.09   0.000   0.200   0.000    0.00
   1.880   20.98   -1.97   -0.74   0.000   0.200   0.000    0.00
   1.890   21.79   -1.39   -0.44   0.000   0.200   0.000    0.00
   1.900   21.71   -1.16   -0.45   0.000   0.200   0.000    0.00
   1.910   21.03   -0.93   -0.21   0.000   0.200   0.000    0.00
   1.920   21.08   -2.39   -0.21   0.000   0.200   0.000    0.00
   1.930   21.03   -3.62   -0.03   0.000   0.200   0.000    0.00
   1.940   20.53   -2.78   -0.23   0.000   0.200   0.000    0.00
   1.950   20.73   -2.23   -0.33   0.000   0.200   0.000    0.00
   1.960   20.87   -1.63   -0.52   0.000   0.200   0.000    0.00
   1.970   20.61   -2.12   -0.61   0.000   0.200   0.000    0.00
   1.980   20.46   -1.14   -0.03   0.000   0.200   0.000    0.00
   1.990   20.63   -3.04   -0.05   0.000   0.200   0.000    0.00
   2.000   20.29   -5.21   -0.60   0.000   0.200   0.000    0.00
   2.010   20.11   -4.95   -1.29   0.000   0.200   0.000    0.00
   2.020   20.60   -5.14   -0.63   0.000   0.200   0.000    0.00
   2.030   20.71   -5.65   -1.10   0.000   0.200   0.000    0.00
   2.040   20.67   -6.43   -1.47   0.000   0.200   0.000    0.00
   2.050   20.19   -4.75   -1.73   0.000   0.200   0.000    0.00
   2.060   20.59   -4.41   -0.84   0.000   0.200   0.000    0.00
   2.070   20.58   -4.92   -0.46   0.000   0.200   0.000    0.00
   2.080   20.52   -4.67   -0.94   0.000   0.200   0.000    0.00
   2.090   20.49   -5.96   -0.75   0.000   0.200   0.000    0.00
   2.100   20.62   -7.05   -0.59   0.000   0.200   0.000    0.00
   2.110   20.55   -7.50   -0.54   0.000   0.200   0.000    0.00
   2.120   20.18   -6.33   -1.07   0.000   0.200   0.000    0.00
   2.130   20.54   -8.02   -0.34   0.000   0.200   0.000    0.00
   2.140   20.67   -6.40   -0.50   0.000   0.200   0.000    0.00
   2.150   21.00   -7.11   -0.72   0.000   0.200   0.000    0.00
   2.160   21.15   -7.17   -0.60   0.000   0.200   0.000    0.00
   2.170   20.99   -7.83   -0.68   0.000   0.200   0.000    0.00
   2.180   20.88   -7.57   -0.75   0.000   0.200   0.000    0.00
   2.190   21.14   -7.50   -1.04   0.000   0.200   0.000    0.00
   2.200   21.24   -6.40   -1.14   0.000   0.200   0.000    0.00
   2.210   21.75   -7.68   -0.76   0.000   0.200   0.000    0.00
   2.220   21.77   -7.14   -0.99   0.000   0.200   0.000    0.00
   2.230   21.42   -7.16   -0.70   0.000   0.200   0.000    0.00
   2.240   21.26   -5.87   -0.93   0.000   0.200   0.000    0.00
   2.250   21.00   -6.07   -0.89   0.000   0.200   0.000    0.00
   2.260   21.11   -5.68   -0.30   0.000   0.200   0.000    0.00
   2.270   21.20   -4.93   -0.45   0.000   0.200   0.000    0.00
   2.280   20.80   -5.55   -0.27   0.000   0.200   0.000    0.00
   2.290   20.53   -3.97    0.33   0.000   0.200   0.000    0.00
   2.300   20.22   -3.23    0.42   0.000   0.200   0.000    0.00
   2.310   20.80   -3.56    0.80   0.000   0.200   0.000    0.00
   2.320   21.23   -2.98    1.05   0.000   0.200   0.000    0.00
   2.330   21.04   -2.23    1.78   0.000   0.200   0.000    0.00
   2.340   20.86   -3.02    1.89   0.000   0.200   0.000    0.00
   2.350   20.25   -1.45    2.00   0.000   0.200   0.000    0.00
   2.360   20.21   -2.40    1.89   0.000   0.200   0.000    0.00
   2.370   20.85   -3.15    1.90   0.000   0.200   0.000    0.00
   2.380   21.35   -3.32    2.29   0.000   0.200   0.000    0.00
   2.390   20.98   -3.54    2.33   0.000   0.200   0.000    0.00
   2.400   21.17   -2.07    2.77   0.000   0.200   0.000    0.00
   2.410   20.70   -2.26    2.80   0.000   0.200   0.000    0.00
   2.420   20.39    0.06    2.10   0.000   0.200   0.000    0.00
   2.430   20.54   -1.74    1.48   0.000   0.200   0.000    0.00
   2.440   20.64   -2.29    1.72   0.000   0.200   0.000    0.00
   2.450   21.04   -0.82    1.97   0.000   0.200   0.000    0.00
   2.460   21.43   -1.47    2.04   0.000   0.200   0.000    0.00
   2.470   21.53   -1.18    2.08   0.000   0.200   0.000    0.00
   2.480   21.53   -1.67    2.01   0.000   0.200   0.000    0.00
   2.490   21.49   -2.42    1.29   0.000   0.200   0.000    0.00
   2.500   21.41   -2.92    0.80   0.000   0.200   0.000    0.00
   2.510   21.73   -3.20    1.14   0.000   0.200   0.000    0.00
   2.520   21.43   -3.71    0.93   0.000   0.200   0.000    0.00
   2.530   20.80   -3.44    1.24   0.000   0.200   0.000    0.00
   2.540   20.86   -3.78    1.37   0.000   0.200   0.000    0.00
   2.550   21.14   -5.11    1.48   0.000   0.200   0.000    0.00
   2.560   21.35   -5.09    0.92   0.000   0.200   0.000    0.00
   2.570   21.41   -6.96    1.82   0.000   0.200   0.000    0.00
   2.580   21.32   -7.86    1.92   0.000   0.200   0.000    0.00
   2.590   21.13   -7.73    1.34   0.000   0.200   0.000    0.00
   2.600   20.99   -7.75    1.52   0.000   0.200   0.000    0.00
   2.610   20.69   -7.55    2.06   0.000   0.200   0.000    0.00
   2.620   20.55   -8.39    2.26   0.000   0.200   0.000    0.00
   2.630   21.01   -8.60    1.71   0.000   0.200   0.000    0.00
   2.640   20.41   -7.47    1.40   0.000   0.200   0.000    0.00
   2.650   20.02   -5.01    1.94   0.000   0.200   0.000    0.00
   2.660   19.74   -5.02    1.97   0.000   0.200   0.000    0.00
   2.670   19.45   -5.85    1.56   0.000   0.200   0.000    0.00
   2.680   19.69   -6.38    1.47   0.000   0.200   0.000    0.00
   2.690   19.55   -5.39    1.52   0.000   0.200   0.000    0.00
   2.700   19.51   -6.34    1.75   0.000   0.200   0.000    0.00
   2.710   19.26   -7.48    1.76   0.000   0.200   0.000    0.00
   2.720   19.79   -7.16    1.73   0.000   0.200   0.000    0.00
   2.730   19.79   -7.93    1.98   0.000   0.200   0.000    0.00
   2.740   19.92   -8.11    1.99   0.000   0.200   0.000    0.00
   2.750   20.28   -8.98    2.36   0.000   0.200   0.000    0.00
   2.760   20.72   -8.17    2.39   0.000   0.200   0.000    0.00
   2.770   20.71   -8.60    2.23   0.000   0.200   0.000    0.00
   2.780   20.50   -8.79    1.99   0.000   0.200   0.000    0.00
   2.790   20.49   -9.41    2.24   0.000   0.200   0.000    0.00
   2.800   20.99  -10.75    1.81   0.000   0.200   0.000    0.00
   2.810   21.56   -7.18    1.76   0.000   0.200   0.000    0.00
   2.820   21.41   -7.68    1.18   0.000   0.200   0.000    0.00
   2.830   21.20   -9.61    1.49   0.000   0.200   0.000    0.00
   2.840   20.78  -10.60    1.59   0.000   0.200   0.000    0.00
   2.850   20.95   -9.51    1.05   0.000   0.200   0.000    0.00
   2.860   20.80   -8.31    1.07   0.000   0.200   0.000    0.00
   2.870   20.78   -7.80    0.97   0.000   0.200   0.000    0.00
   2.880   20.95   -7.04    1.04   0.000   0.200   0.000    0.00
   2.890   20.95   -5.95    1.14   0.000   0.200   0.000    0.00
   2.900   20.88   -3.47    1.71   0.000   0.200   0.000    0.00
   2.910   21.26   -3.13    2.27   0.000   0.200   0.000    0.00
   2.920   20.81   -4.21    2.69   0.000   0.200   0.000    0.00
   2.930   21.01   -2.29    2.73   0.000   0.200   0.000    0.00
   2.940   21.04   -2.91    2.78   0.000   0.200   0.000    0.00
   2.950   21.09   -4.06    2.65   0.000   0.200   0.000    0.00
   2.960   21.30   -4.55    2.26   0.000   0.200   0.000    0.00
   2.970   20.86   -4.78    2.50   0.000   0.200   0.000    0.00
   2.980   21.31   -6.60    3.09   0.000   0.200   0.000    0.00
   2.990   21.74   -7.95    2.47   0.000   0.200   0.000    0.00
   3.000   21.44   -9.17    2.60   0.000   0.200   0.000    0.00
   3.010   20.88   -7.67    3.05   0.000   0.200   0.000    0.00
   3.020   21.03   -7.38    2.83   0.000   0.200   0.000    0.00
   3.030   21.44   -7.11    2.50   0.000   0.200   0.000    0.00
   3.040   21.36   -6.60    2.41   0.000   0.200   0.000    0.00
   3.050   21.18   -8.23    2.92   0.000   0.200   0.000    0.00
   3.060   21.81   -8.19    2.09   0.000   0.200   0.000    0.00
   3.070   21.31   -7.68    1.93   0.000   0.200   0.000    0.00
   3.080   21.37   -7.98    2.26   0.000   0.200   0.000    0.00
   3.090   21.08   -6.81    2.53   0.000   0.200   0.000    0.00
   3.100   21.22   -7.77    2.37   0.000   0.200   0.000    0.00
   3.110   20.62   -7.73    1.86   0.000   0.200   0.000    0.00
   3.120   21.12   -8.92    1.64   0.000   0.200   0.000    0.00
   3.130   20.63   -9.69    1.15   0.000   0.200   0.000    0.00
   3.140   21.37   -9.94    1.17   0.000   0.200   0.000    0.00
   3.150   21.21   -9.18    1.29   0.000   0.200   0.000    0.00
   3.160   21.23  -10.28    0.57   0.000   0.200   0.000    0.00
   3.170   21.12  -10.18    1.32   0.000   0.200   0.000    0.00
   3.180   20.89  -10.25    1.62   0.000   0.200   0.000    0.00
   3.190   21.37   -9.01    1.85   0.000   0.200   0.000    0.00
   3.200   21.31   -9.80    2.89   0.000   0.200   0.000    0.00
   3.210   21.22   -8.95    3.45   0.000   0.200   0.000    0.00
   3.220   20.79   -8.36    3.68   0.000   0.200   0.000    0.00
   3.230   20.20   -9.86    3.91   0.000   0.200   0.000    0.00
   3.240   20.72   -8.62    3.65   0.000   0.200   0.000    0.00
   3.250   21.14   -9.21    3.51   0.000   0.200   0.000    0.00
   3.260   21.11   -9.87    4.14   0.000   0.200   0.000    0.00
   3.270   20.87   -8.58    4.54   0.000   0.200   0.000    0.00
   3.280   21.15   -8.13    4.87   0.000   0.200   0.000    0.00
   3.290   21.37   -9.19    4.69   0.000   0.200   0.000    0.00
   3.300   20.90   -8.28    4.81   0.000   0.200   0.000    0.00
   3.310   20.75   -9.50    4.73   0.000   0.200   0.000    0.00
   3.320   20.94   -8.97    4.37   0.000   0.200   0.000    0.00
   3.330   21.13   -8.89    4.09   0.000   0.200   0.000    0.00
   3.340   21.06   -8.33    3.95   0.000   0.200   0.000    0.00
   3.350   21.21   -8.15    3.52   0.000   0.200   0.000    0.00
   3.360   21.12   -7.18    2.69   0.000   0.200   0.000    0.00
   3.370   21.24   -7.97    2.99   0.000   0.200   0.000    0.00
   3.380   21.41   -8.57    3.00   0.000   0.200   0.000    0.00
   3.390   21.15   -9.16    2.84   0.000   0.200   0.000    0.00
   3.400   21.28   -6.77    3.21   0.000   0.200   0.000    0.00
   3.410   20.77   -7.27    2.99   0.000   0.200   0.000    0.00
   3.420   20.70   -6.46    2.53   0.000   0.200   0.000    0.00
   3.430   21.09   -8.64    2.65   0.000   0.200   0.000    0.00
   3.440   21.21   -8.26    2.72   0.000   0.200   0.000    0.00
   3.450   21.59   -8.04    2.15   0.000   0.200   0.000    0.00
   3.460   21.85   -8.39    2.26   0.000   0.200   0.000    0.00
   3.470   21.69   -8.96    2.78   0.000   0.200   0.000    0.00
   3.480   21.59   -8.10    2.37   0.000   0.200   0.000    0.00
   3.490   21.01   -8.09    2.31   0.000   0.200   0.000    0.00
   3.500   20.64   -8.50    2.14   0.000   0.200   0.000    0.00
   3.510   20.36   -7.64    1.85   0.000   0.200   0.000    0.00
   3.520   20.52   -7.01    1.91   0.000   0.200   0.000    0.00
   3.530   20.98   -9.99    1.53   0.000   0.200   0.000    0.00
   3.540   20.79  -10.94    1.72   0.000   0.200   0.000    0.00
   3.550   21.01  -10.54    1.90   0.000   0.200   0.000    0.00
   3.560   20.74  -10.19    1.56   0.000   0.200   0.000    0.00
   3.570   20.97   -9.42    1.40   0.000   0.200   0.000    0.00
   3.580   21.01  -10.90    2.06   0.000   0.200   0.000    0.00
   3.590   21.23  -11.40    2.41   0.000   0.200   0.000    0.00
   3.600   20.90  -10.49    1.99   0.000   0.200   0.000    0.00
   3.610   20.52   -9.76    1.90   0.000   0.200   0.000    0.00
   3.620   20.29   -8.55    1.90   0.000   0.200   0.000    0.00
   3.630   20.24   -8.94    1.55   0.000   0.200   0.000    0.00
   3.640   20.48  -10.82    1.23   0.000   0.200   0.000    0.00
   3.650   20.94   -9.32    1.29   0.000   0.200   0.000    0.00
   3.660   20.21   -9.71    0.89   0.000   0.200   0.000    0.00
   3.670   19.93  -12.00    1.45   0.000   0.200   0.000    0.00
   3.680   20.19  -13.00    1.51   0.000   0.200   0.000    0.00
   3.690   19.85  -13.82    1.73   0.000   0.200   0.000    0.00
   3.700   20.14  -12.35    2.20   0.000   0.200   0.000    0.00
   3.710   19.95  -10.72    2.78   0.000   0.200   0.000    0.00
   3.720   20.48   -9.43    2.96   0.000   0.200   0.000    0.00
   3.730   20.65   -8.69    2.63   0.000   0.200   0.000    0.00
   3.740   20.73   -8.26    2.42   0.000   0.200   0.000    0.00
   3.750   21.04   -6.97    2.41   0.000   0.200   0.000    0.00
   3.760   20.80   -7.59    2.78   0.000   0.200   0.000    0.00
   3.770   21.00   -8.80    3.19   0.000   0.200   0.000    0.00
   3.780   21.00  -10.34    2.55   0.000   0.200   0.000    0.00
   3.790   21.25   -9.95    2.46   0.000   0.200   0.000    0.00
   3.800   21.39  -10.30    2.11   0.000   0.200   0.000    0.00
   3.810   20.91   -8.66    2.42   0.000   0.200   0.000    0.00
   3.820   20.99   -8.96    2.48   0.000   0.200   0.000    0.00
   3.830   21.27   -9.44    2.57   0.000   0.200   0.000    0.00
   3.840   21.00  -10.29    2.95   0.000   0.200   0.000    0.00
   3.850   20.99   -9.32    2.97   0.000   0.200   0.000    0.00
   3.860   21.02   -9.70    3.23   0.000   0.200   0.000    0.00
   3.870   21.46   -8.37    2.80   0.000   0.200   0.000    0.00
   3.880   21.45   -8.63    3.11   0.000   0.200   0.000    0.00
   3.890   21.15   -8.46    3.19   0.000   0.200   0.000    0.00
   3.900   20.92   -9.17    3.48   0.000   0.200   0.000    0.00
   3.910   21.54   -8.61    4.04   0.000   0.200   0.000    0.00
   3.920   21.45   -8.00    3.93   0.000   0.200   0.000    0.00
   3.930   21.12   -8.33    3.65   0.000   0.200   0.000    0.00
   3.940   20.99   -7.40    3.48   0.000   0.200   0.000    0.00
   3.950   20.95   -7.74    4.20   0.000   0.200   0.000    0.00
   3.960   20.95   -8.16    3.38   0.000   0.200   0.000    0.00
   3.970   20.73   -8.34    3.05   0.000   0.200   0.000    0.00
   3.980   20.94   -9.94    2.50   0.000   0.200   0.000    0.00
   3.990   20.67  -10.77    3.06   0.000   0.200   0.000    0.00
   4.000   21.13   -9.82    3.39   0.000   0.200   0.000    0.00
   4.010   21.23   -9.44    3.10   0.000   0.200   0.000    0.00
   4.020   21.42   -8.87    3.12   0.000   0.200   0.000    0.00
   4.030   21.03  -11.27    3.40   0.000   0.200   0.000    0.00
   4.040   21.09  -10.49    3.36   0.000   0.200   0.000    0.00
   4.050   20.87  -10.51    3.71   0.000   0.200   0.000    0.00
   4.060   20.67  -11.84    3.30   0.000   0.200   0.000    0.00
   4.070   21.16  -11.47    3.55   0.000   0.200   0.000    0.00
   4.080   21.32  -11.34    4.11   0.000   0.200   0.000    0.00
   4.090   21.16  -10.36    3.92   0.000   0.200   0.000    0.00
   4.100   21.04   -9.47    3.55   0.000   0.200   0.000    0.00
   4.110   21.35   -8.20    3.17   0.000   0.200   0.000    0.00
   4.120   20.52   -8.26    3.77   0.000   0.200   0.000    0.00
   4.130   19.99   -8.95    3.67   0.000   0.200   0.000    0.00
   4.140   19.87   -8.32    3.54   0.000   0.200   0.000    0.00
   4.150   20.35   -9.30    3.82   0.000   0.200   0.000    0.00
   4.160   20.86   -9.61    4.17   0.000   0.200   0.000    0.00
   4.170   20.35   -8.81    4.03   0.000   0.200   0.000    0.00
   4.180   19.85  -11.55    4.12   0.000   0.200   0.000    0.00
   4.190   20.01  -12.23    4.51   0.000   0.200   0.000    0.00
   4.200   20.19  -12.38    4.17   0.000   0.200   0.000    0.00
   4.210   20.61  -12.31    4.09   0.000   0.200   0.000    0.00
   4.220   20.59  -11.79    3.95   0.000   0.200   0.000    0.00
   4.230   21.04  -12.32    3.98   0.000   0.200   0.000    0.00
   4.240   21.06  -14.88    3.56   0.000   0.200   0.000    0.00
   4.250   20.78  -16.54    3.50   0.000   0.200   0.000    0.00
   4.260   20.56  -15.32    3.87   0.000   0.200   0.000    0.00
   4.270   20.41  -14.73    4.32   0.000   0.200   0.000    0.00
   4.280   20.49  -14.32    4.22   0.000   0.200   0.000    0.00
   4.290   20.28  -13.97    3.96   0.000   0.200   0.000    0.00
   4.300   20.59  -14.62    3.26   0.000   0.200   0.000    0.00
   4.310   20.83  -15.28    2.80   0.000   0.200   0.000    0.00
   4.320   20.66  -13.30    3.32   0.000   0.200   0.000    0.00
   4.330   20.57  -13.01    4.22   0.000   0.200   0.000    0.00
   4.340   20.72  -11.89    4.16   0.000   0.200   0.000    0.00
   4.350   21.22  -11.35    3.95   0.000   0.200   0.000    0.00
   4.360   21.14  -11.10    4.37   0.000   0.200   0.000    0.00
   4.370   21.19  -11.02    5.22   0.000   0.200   0.000    0.00
   4.380   21.57  -11.20    5.77   0.000   0.200   0.000    0.00
   4.390   21.97  -10.77    5.37   0.000   0.200   0.000    0.00
   4.400   22.45  -11.38    5.54   0.000   0.200   0.000    0.00
   4.410   22.55  -11.56    5.97   0.000   0.200   0.000    0.00
   4.420   22.47  -11.31    5.69   0.000   0.200   0.000    0.00
   4.430   21.73  -11.62    5.53   0.000   0.200   0.000    0.00
   4.440   22.16  -12.48    5.27   0.000   0.200   0.000    0.00
   4.450   22.18  -11.34    5.17   0.000   0.200   0.000    0.00
   4.460   22.59  -11.15    4.78   0.000   0.200   0.000    0.00
   4.470   22.57  -11.42    5.33   0.000   0.200   0.000    0.00
   4.480   22.39  -12.15    5.18   0.000   0.200   0.000    0.00
   4.490   22.67  -14.44    5.01   0.000   0.200   0.000    0.00
   4.500   22.61  -12.56    4.80   0.000   0.200   0.000    0.00
   4.510   22.78  -12.95    5.23   0.000   0.200   0.000    0.00
   4.520   23.01  -13.65    5.24   0.000   0.200   0.000    0.00
   4.530   23.14  -12.35    4.81   0.000   0.200   0.000    0.00
   4.540   22.81  -12.51    4.92   0.000   0.200   0.000    0.00