! This hub-height wind-speed file was generated by TurbSim (from OpenFAST--128-NOTFOUND) on 23-Oct-2023 at 21:50:18.
!
! The requested statistics for this data were:
!    Mean Total Wind Speed =   20.000 m/s
!    Turbulence Intensity  =   14.420%
!
!   Time  HorSpd  WndDir  VerSpd  HorShr  VerShr  LnVShr  GstSpd
!  (sec)   (m/s)   (deg)   (m/s)     (-)     (-)     (-)   (m/s)
   0.000   20.62  -13.44    0.93   0.000   0.200   0.000    0.00
   0.050   21.58  -12.49    1.36   0.000   0.200   0.000    0.00
   0.100   21.66  -12.06    1.20   0.000   0.200   0.000    0.00
   0.150   21.54   -9.52    0.49   0.000   0.200   0.000    0.00
   0.200   21.15  -10.65   -0.30   0.000   0.200   0.000    0.00
   0.250   20.63   -9.26   -0.31   0.000   0.200   0.000    0.00
   0.300   21.40  -11.35   -0.54   0.000   0.200   0.000    0.00
   0.350   21.24   -9.95   -0.42   0.000   0.200   0.000    0.00
   0.400   21.57   -9.00   -0.40   0.000   0.200   0.000    0.00
   0.450   22.26   -6.55   -1.10   0.000   0.200   0.000    0.00
   0.500   22.42   -5.46   -1.93   0.000   0.200   0.000    0.00
   0.550   22.38   -4.91   -2.13   0.000   0.200   0.000    0.00
   0.600   21.98   -3.95   -3.05   0.000   0.200   0.000    0.00
   0.650   21.66   -5.39   -1.86   0.000   0.200   0.000    0.00
   0.700   22.27   -4.21   -1.63   0.000   0.200   0.000    0.00
   0.750   22.28   -3.06   -1.57   0.000   0.200   0.000    0.00
   0.800   22.48   -4.22   -1.37   0.000   0.200   0.000    0.00
   0.850   22.45   -3.32   -1.09   0.000   0.200   0.000    0.00
   0.900   20.97   -0.81   -0.03   0.000   0.200   0.000    0.00
   0.950   21.29   -3.42   -0.12   0.000   0.200   0.000    0.00
   1.000   21.84   -2.55   -0.38   0.000   0.200   0.000    0.00
   1.050   22.18    0.89   -0.92   0.000   0.200   0.000    0.00
   1.100   21.98    2.68   -0.17   0.000   0.200   0.000    0.00
   1.150   21.94    2.49   -0.89   0.000   0.200   0.000    0.00
   1.200   22.00    3.46   -1.73   0.000   0.200   0.000    0.00
   1.250   21.91    3.98   -2.07   0.000   0.200   0.000    0.00
   1.300   22.49    2.16   -1.55   0.000   0.200   0.000    0.00
   1.350   23.08    1.62   -0.81   0.000   0.200   0.000    0.00
   1.400   22.81    2.19   -0.67   0.000   0.200   0.000    0.00
   1.450   22.82    1.72   -0.32   0.000   0.200   0.000    0.00
   1.500   22.90   -0.80   -0.68   0.000   0.200   0.000    0.00
   1.550   23.38   -0.30   -0.68   0.000   0.200   0.000    0.00
   1.600   23.70   -2.53   -1.21   0.000   0.200   0.000    0.00
   1.650   23.37   -2.88   -0.87   0.000   0.200   0.000    0.00
   1.700   23.10   -1.00    0.15   0.000   0.200   0.000    0.00
   1.750   21.90   -0.85   -1.82   0.000   0.200   0.000    0.00
   1.800   22.39   -0.92   -0.46   0.000   0.200   0.000    0.00
   1.850   21.68   -0.64   -0.11   0.000   0.200   0.000    0.00
   1.900   21.49   -2.00   -0.41   0.000   0.200   0.000    0.00
   1.950   21.69   -2.94   -0.07   0.000   0.200   0.000    0.00
   2.000   21.85   -2.13    0.22   0.000   0.200   0.000    0.00
   2.050   21.75   -2.61    0.57   0.000   0.200   0.000    0.00
   2.100   21.32   -2.73    0.78   0.000   0.200   0.000    0.00
   2.150   21.07   -4.34    0.42   0.000   0.200   0.000    0.00
   2.200   20.76   -2.76    0.88   0.000   0.200   0.000    0.00
   2.250   20.62   -2.20    1.21   0.000   0.200   0.000    0.00
   2.300   19.58   -1.82    0.87   0.000   0.200   0.000    0.00
   2.350   19.95   -3.22    1.74   0.000   0.200   0.000    0.00
   2.400   19.99   -0.44    1.62   0.000   0.200   0.000    0.00
   2.450   20.01   -0.95    1.36   0.000   0.200   0.000    0.00
   2.500   19.30   -0.41    0.59   0.000   0.200   0.000    0.00
   2.550   18.95    0.97    0.06   0.000   0.200   0.000    0.00
   2.600   18.89    1.90    0.55   0.000   0.200   0.000    0.00
   2.650   18.78    0.26    1.21   0.000   0.200   0.000    0.00
   2.700   19.48   -0.53    0.96   0.000   0.200   0.000    0.00
   2.750   19.02   -1.94    1.38   0.000   0.200   0.000    0.00
   2.800   17.71   -3.14    1.51   0.000   0.200   0.000    0.00
   2.850   17.86   -1.36    2.07   0.000   0.200   0.000    0.00
   2.900   18.03    1.42    1.78   0.000   0.200   0.000    0.00
   2.950   18.17    0.28    1.78   0.000   0.200   0.000    0.00
   3.000   19.07   -1.01    2.20   0.000   0.200   0.000    0.00
   3.050   19.16    0.23    1.88   0.000   0.200   0.000    0.00
   3.100   18.92    2.53    1.61   0.000   0.200   0.000    0.00
   3.150   19.60    2.14    2.29   0.000   0.200   0.000    0.00
   3.200   19.32    3.18    1.52   0.000   0.200   0.000    0.00
   3.250   18.87    4.07    1.46   0.000   0.200   0.000    0.00
   3.300   18.44    3.24    1.07   0.000   0.200   0.000    0.00
   3.350   19.30    3.38    0.57   0.000   0.200   0.000    0.00
   3.400   19.56    2.66    0.84   0.000   0.200   0.000    0.00
   3.450   20.63    4.07    0.68   0.000   0.200   0.000    0.00
   3.500   21.28    3.27    0.06   0.000   0.200   0.000    0.00
   3.550   21.28    4.99   -0.10   0.000   0.200   0.000    0.00
   3.600   21.41    3.67   -0.90   0.000   0.200   0.000    0.00
   3.650   20.71    3.88   -0.19   0.000   0.200   0.000    0.00
   3.700   20.22    4.42    0.04   0.000   0.200   0.000    0.00
   3.750   20.39    5.48   -0.07   0.000   0.200   0.000    0.00
   3.800   19.38    5.77   -1.57   0.000   0.200   0.000    0.00
   3.850   18.99    3.25   -0.75   0.000   0.200   0.000    0.00
   3.900   18.82    5.69   -0.10   0.000   0.200   0.000    0.00
   3.950   19.10    6.18   -0.05   0.000   0.200   0.000    0.00
   4.000   18.98    5.48   -0.48   0.000   0.200   0.000    0.00
   4.050   18.28    1.85   -0.47   0.000   0.200   0.000    0.00
   4.100   18.63   -1.99   -0.78   0.000   0.200   0.000    0.00
   4.150   18.72   -6.28   -1.72   0.000   0.200   0.000    0.00
   4.200   18.04   -2.42   -1.01   0.000   0.200   0.000    0.00
   4.250   19.27   -4.18   -0.77   0.000   0.200   0.000    0.00
   4.300   19.00   -5.02    0.02   0.000   0.200   0.000    0.00
   4.350   18.11   -2.56   -0.13   0.000   0.200   0.000    0.00
   4.400   17.13   -5.77   -0.26   0.000   0.200   0.000    0.00
   4.450   17.14   -8.27   -1.72   0.000   0.200   0.000    0.00
   4.500   16.20   -3.74   -1.60   0.000   0.200   0.000    0.00
   4.550   17.32   -4.35   -1.82   0.000   0.200   0.000    0.00
   4.600   17.25   -5.44   -2.47   0.000   0.200   0.000    0.00
   4.650   17.63   -7.32   -3.28   0.000   0.200   0.000    0.00
   4.700   18.32   -6.99   -3.25   0.000   0.200   0.000    0.00
   4.750   18.25   -9.96   -3.38   0.000   0.200   0.000    0.00
   4.800   18.12   -7.26   -2.93   0.000   0.200   0.000    0.00
   4.850   18.74   -5.82   -3.67   0.000   0.200   0.000    0.00
   4.900   18.68   -7.41   -3.83   0.000   0.200   0.000    0.00
   4.950   18.31   -8.93   -3.41   0.000   0.200   0.000    0.00
   5.000   18.79   -8.50   -3.31   0.000   0.200   0.000    0.00
   5.050   19.13   -7.82   -3.94   0.000   0.200   0.000    0.00
   5.100   19.22   -7.17   -3.39   0.000   0.200   0.000    0.00
   5.150   18.71   -9.73   -3.45   0.000   0.200   0.000    0.00
   5.200   18.30  -13.76   -4.22   0.000   0.200   0.000    0.00
   5.250   18.87  -12.97   -2.86   0.000   0.200   0.000    0.00
   5.300   18.54  -14.57   -2.10   0.000   0.200   0.000    0.00
   5.350   17.62  -13.63   -2.14   0.000   0.200   0.000    0.00
   5.400   18.63  -13.02   -0.70   0.000   0.200   0.000    0.00
   5.450   18.11  -12.78   -1.62   0.000   0.200   0.000    0.00
   5.500   17.75  -12.82   -2.90   0.000   0.200   0.000    0.00
   5.550   17.81  -10.33   -2.43   0.000   0.200   0.000    0.00
   5.600   18.00  -10.73   -1.60   0.000   0.200   0.000    0.00
   5.650   18.21   -8.65   -1.90   0.000   0.200   0.000    0.00
   5.700   18.53  -11.82   -1.96   0.000   0.200   0.000    0.00
   5.750   18.36   -9.60   -2.22   0.000   0.200   0.000    0.00
   5.800   19.36  -12.98   -2.84   0.000   0.200   0.000    0.00
   5.850   18.56  -13.64   -1.88   0.000   0.200   0.000    0.00
   5.900   18.69   -9.68   -1.86   0.000   0.200   0.000    0.00
   5.950   18.99   -5.48   -2.48   0.000   0.200   0.000    0.00
   6.000   18.40   -5.64   -3.06   0.000   0.200   0.000    0.00
   6.050   17.86   -7.71   -2.90   0.000   0.200   0.000    0.00
   6.100   17.67   -7.81   -2.75   0.000   0.200   0.000    0.00
   6.150   16.82   -9.17   -3.01   0.000   0.200   0.000    0.00
   6.200   17.41   -9.93   -3.73   0.000   0.200   0.000    0.00
   6.250   17.40   -7.38   -2.60   0.000   0.200   0.000    0.00
   6.300   17.32   -9.71   -2.46   0.000   0.200   0.000    0.00
   6.350   17.68   -9.57   -1.94   0.000   0.200   0.000    0.00
   6.400   17.39   -8.24   -1.98   0.000   0.200   0.000    0.00
   6.450   17.71   -8.95   -1.70   0.000   0.200   0.000    0.00
   6.500   18.67   -9.37   -1.62   0.000   0.200   0.000    0.00
   6.550   18.74  -12.62   -1.49   0.000   0.200   0.000    0.00
   6.600   19.09  -13.24   -1.20   0.000   0.200   0.000    0.00
   6.650   18.23  -14.86   -1.68   0.000   0.200   0.000    0.00
   6.700   18.94  -13.53   -1.31   0.000   0.200   0.000    0.00
   6.750   17.86   -8.83   -2.42   0.000   0.200   0.000    0.00
   6.800   17.05  -12.33   -2.91   0.000   0.200   0.000    0.00
   6.850   17.55  -11.89   -1.59   0.000   0.200   0.000    0.00
   6.900   17.49   -9.56   -0.97   0.000   0.200   0.000    0.00
   6.950   17.51   -9.27   -1.06   0.000   0.200   0.000    0.00
   7.000   17.78  -10.05   -1.32   0.000   0.200   0.000    0.00
   7.050   17.33   -8.88   -1.56   0.000   0.200   0.000    0.00
   7.100   16.52   -8.88   -0.79   0.000   0.200   0.000    0.00
   7.150   16.97  -12.32   -1.04   0.000   0.200   0.000    0.00
   7.200   15.69  -11.93   -1.27   0.000   0.200   0.000    0.00
   7.250   16.00   -9.48   -1.40   0.000   0.200   0.000    0.00
   7.300   16.01  -10.19   -2.04   0.000   0.200   0.000    0.00
   7.350   15.45   -9.32   -2.73   0.000   0.200   0.000    0.00
   7.400   15.79   -9.95   -2.65   0.000   0.200   0.000    0.00
   7.450   16.10   -7.40   -2.30   0.000   0.200   0.000    0.00
   7.500   16.26   -5.08   -3.19   0.000   0.200   0.000    0.00
   7.550   16.67   -7.86   -3.28   0.000   0.200   0.000    0.00
   7.600   15.73   -9.29   -4.08   0.000   0.200   0.000    0.00
   7.650   15.96  -12.16   -3.72   0.000   0.200   0.000    0.00
   7.700   15.82  -10.34   -3.93   0.000   0.200   0.000    0.00
   7.750   15.33  -11.00   -4.37   0.000   0.200   0.000    0.00
   7.800   15.99   -9.73   -5.09   0.000   0.200   0.000    0.00
   7.850   15.61   -9.26   -5.06   0.000   0.200   0.000    0.00
   7.900   14.87  -13.75   -4.45   0.000   0.200   0.000    0.00
   7.950   14.47  -14.13   -5.48   0.000   0.200   0.000    0.00
   8.000   14.41  -15.81   -5.86   0.000   0.200   0.000    0.00
   8.050   13.91  -10.03   -5.66   0.000   0.200   0.000    0.00
   8.100   14.25  -14.23   -5.31   0.000   0.200   0.000    0.00
   8.150   13.40  -13.84   -5.97   0.000   0.200   0.000    0.00
   8.200   13.54  -13.60   -6.19   0.000   0.200   0.000    0.00
   8.250   13.99   -7.62   -7.43   0.000   0.200   0.000    0.00
   8.300   14.46   -4.85   -6.69   0.000   0.200   0.000    0.00
   8.350   14.76   -4.60   -6.84   0.000   0.200   0.000    0.00
   8.400   14.93   -4.03   -6.81   0.000   0.200   0.000    0.00
   8.450   15.65   -2.57   -7.89   0.000   0.200   0.000    0.00
   8.500   15.21    1.48   -7.36   0.000   0.200   0.000    0.00
   8.550   14.81    1.21   -8.18   0.000   0.200   0.000    0.00
   8.600   15.08    1.03   -8.42   0.000   0.200   0.000    0.00
   8.650   15.15    2.86   -9.19   0.000   0.200   0.000    0.00
   8.700   15.54    1.38   -9.70   0.000   0.200   0.000    0.00
   8.750   14.52   -0.85   -8.86   0.000   0.200   0.000    0.00
   8.800   14.70    0.21   -9.19   0.000   0.200   0.000    0.00
   8.850   15.49   -3.20   -9.02   0.000   0.200   0.000    0.00
   8.900   14.30   -0.29   -9.19   0.000   0.200   0.000    0.00
   8.950   13.92    0.54   -9.26   0.000   0.200   0.000    0.00
   9.000   14.16   -0.23   -9.34   0.000   0.200   0.000    0.00
   9.050   15.60   -4.24   -8.58   0.000   0.200   0.000    0.00
   9.100   16.08   -4.59   -7.93   0.000   0.200   0.000    0.00
   9.150   15.95   -7.34   -7.99   0.000   0.200   0.000    0.00
   9.200   15.98   -9.28   -7.91   0.000   0.200   0.000    0.00
   9.250   16.69   -9.91   -7.54   0.000   0.200   0.000    0.00
   9.300   15.82   -9.04   -7.79   0.000   0.200   0.000    0.00
   9.350   15.61   -9.47   -7.87   0.000   0.200   0.000    0.00
   9.400   16.41  -11.52   -7.29   0.000   0.200   0.000    0.00
   9.450   16.50  -10.05   -6.57   0.000   0.200   0.000    0.00
   9.500   17.25   -8.93   -7.27   0.000   0.200   0.000    0.00
   9.550   17.34   -8.83   -6.40   0.000   0.200   0.000    0.00
   9.600   16.98   -7.11   -6.23   0.000   0.200   0.000    0.00
   9.650   17.04   -7.25   -5.67   0.000   0.200   0.000    0.00
   9.700   17.66   -9.17   -5.56   0.000   0.200   0.000    0.00
   9.750   18.23   -9.68   -5.45   0.000   0.200   0.000    0.00
   9.800   18.43   -8.70   -5.39   0.000   0.200   0.000    0.00
   9.850   17.69   -7.65   -5.37   0.000   0.200   0.000    0.00
   9.900   17.00   -6.68   -6.73   0.000   0.200   0.000    0.00
   9.950   16.20   -7.56   -6.69   0.000   0.200   0.000    0.00
  10.000   16.45   -9.33   -6.78   0.000   0.200   0.000    0.00
  10.050   16.38   -8.99   -6.11   0.000   0.200   0.000    0.00
  10.100   16.52   -5.88   -5.19   0.000   0.200   0.000    0.00
  10.150   16.47   -1.79   -4.49   0.000   0.200   0.000    0.00
  10.200   15.97   -3.43   -4.54   0.000   0.200   0.000    0.00
  10.250   15.35   -5.16   -4.48   0.000   0.200   0.000    0.00
  10.300   15.71   -4.48   -4.29   0.000   0.200   0.000    0.00
  10.350   15.05   -6.45   -4.43   0.000   0.200   0.000    0.00
  10.400   15.26   -7.17   -4.43   0.000   0.200   0.000    0.00
  10.450   16.69   -7.79   -4.87   0.000   0.200   0.000    0.00
  10.500   17.24   -8.79   -5.25   0.000   0.200   0.000    0.00
  10.550   17.46   -9.23   -4.53   0.000   0.200   0.000    0.00
  10.600   18.23   -8.74   -4.31   0.000   0.200   0.000    0.00
  10.650   17.90   -4.40   -4.19   0.000   0.200   0.000    0.00
  10.700   17.94   -2.81   -4.09   0.000   0.200   0.000    0.00
  10.750   17.56   -2.32   -4.35   0.000   0.200   0.000    0.00
  10.800   17.76   -4.84   -5.15   0.000   0.200   0.000    0.00
  10.850   17.95   -8.05   -4.58   0.000   0.200   0.000    0.00
  10.900   18.29   -7.68   -4.42   0.000   0.200   0.000    0.00
  10.950   18.74   -8.34   -5.34   0.000   0.200   0.000    0.00
  11.000   19.03   -7.21   -6.19   0.000   0.200   0.000    0.00
  11.050   18.53   -7.90   -5.21   0.000   0.200   0.000    0.00
  11.100   18.84   -6.78   -4.60   0.000   0.200   0.000    0.00
  11.150   18.45  -10.42   -4.55   0.000   0.200   0.000    0.00
  11.200   17.94   -9.20   -4.76   0.000   0.200   0.000    0.00
  11.250   18.46   -5.64   -4.77   0.000   0.200   0.000    0.00
  11.300   18.39   -5.37   -4.35   0.000   0.200   0.000    0.00
  11.350   18.00   -6.33   -4.62   0.000   0.200   0.000    0.00
  11.400   18.18   -5.88   -4.18   0.000   0.200   0.000    0.00
  11.450   17.72   -0.43   -4.02   0.000   0.200   0.000    0.00
  11.500   17.08    1.15   -4.59   0.000   0.200   0.000    0.00
  11.550   17.15    0.92   -4.79   0.000   0.200   0.000    0.00
  11.600   17.59   -3.93   -5.56   0.000   0.200   0.000    0.00
  11.650   16.82   -2.46   -5.81   0.000   0.200   0.000    0.00
  11.700   17.28   -2.43   -5.62   0.000   0.200   0.000    0.00
  11.750   17.60   -1.10   -5.22   0.000   0.200   0.000    0.00
  11.800   18.13    2.29   -4.09   0.000   0.200   0.000    0.00
  11.850   18.05   -0.41   -3.84   0.000   0.200   0.000    0.00
  11.900   18.57   -0.94   -3.75   0.000   0.200   0.000    0.00
  11.950   19.29    1.76   -4.10   0.000   0.200   0.000    0.00
  12.000   19.93    0.87   -4.26   0.000   0.200   0.000    0.00
  12.050   20.18    2.22   -4.98   0.000   0.200   0.000    0.00
  12.100   20.20    1.75   -4.43   0.000   0.200   0.000    0.00
  12.150   19.94    0.66   -4.55   0.000   0.200   0.000    0.00
  12.200   20.59   -0.53   -6.26   0.000   0.200   0.000    0.00
  12.250   20.68    0.86   -5.51   0.000   0.200   0.000    0.00
  12.300   19.76    3.32   -4.47   0.000   0.200   0.000    0.00
  12.350   20.20    3.87   -4.47   0.000   0.200   0.000    0.00
  12.400   21.24    0.18   -4.19   0.000   0.200   0.000    0.00
  12.450   22.10    0.39   -5.38   0.000   0.200   0.000    0.00
  12.500   21.64    1.03   -4.97   0.000   0.200   0.000    0.00
  12.550   20.94    1.29   -4.19   0.000   0.200   0.000    0.00
  12.600   20.40    0.11   -3.99   0.000   0.200   0.000    0.00
  12.650   21.27    1.76   -3.47   0.000   0.200   0.000    0.00
  12.700   22.39    2.27   -2.06   0.000   0.200   0.000    0.00
  12.750   21.55    0.44   -2.12   0.000   0.200   0.000    0.00
  12.800   21.63    0.60   -1.61   0.000   0.200   0.000    0.00
  12.850   21.43    0.94   -1.66   0.000   0.200   0.000    0.00
  12.900   21.69   -0.49   -2.17   0.000   0.200   0.000    0.00
  12.950   21.77   -3.19   -1.21   0.000   0.200   0.000    0.00
  13.000   21.20   -2.50   -2.56   0.000   0.200   0.000    0.00
  13.050   20.84   -0.37   -2.66   0.000   0.200   0.000    0.00
  13.100   20.66   -1.74   -2.59   0.000   0.200   0.000    0.00
  13.150   20.59   -0.90   -2.95   0.000   0.200   0.000    0.00
  13.200   20.27    1.97   -3.61   0.000   0.200   0.000    0.00
  13.250   21.19    0.58   -4.15   0.000   0.200   0.000    0.00
  13.300   21.34    2.08   -4.42   0.000   0.200   0.000    0.00
  13.350   20.90    5.30   -4.35   0.000   0.200   0.000    0.00
  13.400   20.24    4.50   -4.99   0.000   0.200   0.000    0.00
  13.450   19.90   -0.48   -4.32   0.000   0.200   0.000    0.00
  13.500   20.10    0.73   -3.74   0.000   0.200   0.000    0.00
  13.550   20.84    0.56   -5.05   0.000   0.200   0.000    0.00
  13.600   20.23    4.38   -4.74   0.000   0.200   0.000    0.00
  13.650   20.06    5.84   -5.36   0.000   0.200   0.000    0.00
  13.700   19.56    6.12   -4.38   0.000   0.200   0.000    0.00
  13.750   18.74    5.56   -5.57   0.000   0.200   0.000    0.00
  13.800   19.34    4.76   -6.13   0.000   0.200   0.000    0.00
  13.850   19.22    3.00   -6.43   0.000   0.200   0.000    0.00
  13.900   19.23    2.00   -6.87   0.000   0.200   0.000    0.00
  13.950   18.93    5.08   -7.80   0.000   0.200   0.000    0.00
  14.000   18.37    5.49   -7.10   0.000   0.200   0.000    0.00
  14.050   17.71    4.50   -5.92   0.000   0.200   0.000    0.00
  14.100   17.30    5.28   -6.21   0.000   0.200   0.000    0.00
  14.150   17.47    5.59   -6.57   0.000   0.200   0.000    0.00
  14.200   17.99    7.20   -5.83   0.000   0.200   0.000    0.00
  14.250   18.49    7.10   -5.95   0.000   0.200   0.000    0.00
  14.300   19.97    6.90   -5.65   0.000   0.200   0.000    0.00
  14.350   20.22    5.40   -4.84   0.000   0.200   0.000    0.00
  14.400   19.55    4.65   -4.72   0.000   0.200   0.000    0.00
  14.450   19.33    2.66   -5.43   0.000   0.200   0.000    0.00
  14.500   19.42    0.22   -4.87   0.000   0.200   0.000    0.00
  14.550   18.46    0.66   -3.87   0.000   0.200   0.000    0.00
  14.600   18.44    1.00   -4.04   0.000   0.200   0.000    0.00
  14.650   19.55   -0.11   -4.30   0.000   0.200   0.000    0.00
  14.700   20.27    2.54   -3.25   0.000   0.200   0.000    0.00
  14.750   20.63    1.30   -1.77   0.000   0.200   0.000    0.00
  14.800   19.69    0.80   -0.85   0.000   0.200   0.000    0.00
  14.850   19.76    1.33   -0.58   0.000   0.200   0.000    0.00
  14.900   20.16    2.42   -1.06   0.000   0.200   0.000    0.00
  14.950   20.22    3.18   -1.02   0.000   0.200   0.000    0.00
  15.000   20.47    1.42   -0.35   0.000   0.200   0.000    0.00
  15.050   20.77    4.04   -0.80   0.000   0.200   0.000    0.00
  15.100   21.09    2.77   -0.84   0.000   0.200   0.000    0.00
  15.150   21.92    2.81   -1.25   0.000   0.200   0.000    0.00
  15.200   21.32    5.99   -1.63   0.000   0.200   0.000    0.00
  15.250   21.32    8.06   -0.82   0.000   0.200   0.000    0.00
  15.300   21.97    8.22   -0.10   0.000   0.200   0.000    0.00
  15.350   21.24    8.37   -0.37   0.000   0.200   0.000    0.00
  15.400   21.33    9.39    0.23   0.000   0.200   0.000    0.00
  15.450   21.34    7.58   -0.09   0.000   0.200   0.000    0.00
  15.500   22.48    6.50    0.00   0.000   0.200   0.000    0.00
  15.550   22.68    6.62    0.68   0.000   0.200   0.000    0.00
  15.600   21.98    6.30    0.44   0.000   0.200   0.000    0.00
  15.650   22.30    7.19   -0.06   0.000   0.200   0.000    0.00
  15.700   21.76    7.34   -1.01   0.000   0.200   0.000    0.00
  15.750   20.62    5.22   -0.84   0.000   0.200   0.000    0.00
  15.800   20.64    5.15   -0.95   0.000   0.200   0.000    0.00
  15.850   20.55    2.03   -1.00   0.000   0.200   0.000    0.00
  15.900   20.56    2.54   -1.54   0.000   0.200   0.000    0.00
  15.950   20.28    0.25   -2.10   0.000   0.200   0.000    0.00
  16.000   20.52   -0.10   -1.81   0.000   0.200   0.000    0.00
  16.050   20.40   -0.03   -2.29   0.000   0.200   0.000    0.00
  16.100   19.77   -1.01   -2.88   0.000   0.200   0.000    0.00
  16.150   19.04    0.50   -2.20   0.000   0.200   0.000    0.00
  16.200   19.00    0.43   -2.89   0.000   0.200   0.000    0.00
  16.250   19.76    0.08   -2.25   0.000   0.200   0.000    0.00
  16.300   19.89    1.28   -2.36   0.000   0.200   0.000    0.00
  16.350   19.77    0.11   -2.49   0.000   0.200   0.000    0.00
  16.400   19.70   -1.55   -3.12   0.000   0.200   0.000    0.00
  16.450   19.78    0.62   -2.71   0.000   0.200   0.000    0.00
  16.500   20.05    3.17   -2.65   0.000   0.200   0.000    0.00
  16.550   19.34    4.04   -3.04   0.000   0.200   0.000    0.00
  16.600   19.74    1.88   -3.08   0.000   0.200   0.000    0.00
  16.650   20.21   -1.12   -2.15   0.000   0.200   0.000    0.00
  16.700   20.14    0.05   -2.32   0.000   0.200   0.000    0.00
  16.750   19.85   -2.47   -2.76   0.000   0.200   0.000    0.00
  16.800   18.56   -1.10   -2.74   0.000   0.200   0.000    0.00
  16.850   18.57   -0.43   -1.95   0.000   0.200   0.000    0.00
  16.900   18.43   -2.55   -1.48   0.000   0.200   0.000    0.00
  16.950   18.11    0.25   -1.33   0.000   0.200   0.000    0.00
  17.000   18.46    0.69   -0.30   0.000   0.200   0.000    0.00
  17.050   18.41   -1.16   -2.15   0.000   0.200   0.000    0.00
  17.100   18.01    2.03   -2.64   0.000   0.200   0.000    0.00
  17.150   18.62    1.82   -2.64   0.000   0.200   0.000    0.00
  17.200   19.19    3.16   -2.42   0.000   0.200   0.000    0.00
  17.250   19.55    2.40   -3.22   0.000   0.200   0.000    0.00
  17.300   20.17    2.89   -2.82   0.000   0.200   0.000    0.00
  17.350   19.95    3.68   -4.19   0.000   0.200   0.000    0.00
  17.400   20.01   -0.79   -4.47   0.000   0.200   0.000    0.00
  17.450   19.85   -4.16   -3.52   0.000   0.200   0.000    0.00
  17.500   19.75   -3.24   -2.67   0.000   0.200   0.000    0.00
  17.550   20.30   -4.85   -3.17   0.000   0.200   0.000    0.00
  17.600   19.79   -4.34   -3.02   0.000   0.200   0.000    0.00
  17.650   19.65   -7.58   -3.12   0.000   0.200   0.000    0.00
  17.700   19.99   -6.74   -3.03   0.000   0.200   0.000    0.00
  17.750   19.32   -4.04   -3.08   0.000   0.200   0.000    0.00
  17.800   19.75   -3.34   -3.57   0.000   0.200   0.000    0.00
  17.850   18.63   -5.66   -3.05   0.000   0.200   0.000    0.00
  17.900   19.26   -4.25   -2.25   0.000   0.200   0.000    0.00
  17.950   20.25   -3.71   -1.36   0.000   0.200   0.000    0.00
  18.000   19.90   -6.44   -0.78   0.000   0.200   0.000    0.00
  18.050   19.99   -5.31   -1.90   0.000   0.200   0.000    0.00
  18.100   20.37   -2.42   -1.82   0.000   0.200   0.000    0.00
  18.150   20.07   -2.23   -2.29   0.000   0.200   0.000    0.00
  18.200   19.94   -0.77   -2.09   0.000   0.200   0.000    0.00
  18.250   20.12    1.44   -1.88   0.000   0.200   0.000    0.00
  18.300   20.25   -1.51   -1.83   0.000   0.200   0.000    0.00
  18.350   20.01    0.56   -1.69   0.000   0.200   0.000    0.00
  18.400   19.47    1.54   -2.26   0.000   0.200   0.000    0.00
  18.450   19.75   -0.62   -2.81   0.000   0.200   0.000    0.00
  18.500   20.25   -0.82   -3.30   0.000   0.200   0.000    0.00
  18.550   19.46   -1.12   -2.50   0.000   0.200   0.000    0.00
  18.600   19.61   -0.87   -2.07   0.000   0.200   0.000    0.00
  18.650   19.98   -1.53   -2.57   0.000   0.200   0.000    0.00
  18.700   19.83   -0.00   -2.77   0.000   0.200   0.000    0.00
  18.750   20.29    5.20   -3.31   0.000   0.200   0.000    0.00
  18.800   19.96    5.59   -3.94   0.000   0.200   0.000    0.00
  18.850   19.35    4.43   -3.54   0.000   0.200   0.000    0.00
  18.900   20.49    9.67   -3.06   0.000   0.200   0.000    0.00
  18.950   20.48   10.30   -3.13   0.000   0.200   0.000    0.00
  19.000   20.18    9.68   -3.51   0.000   0.200   0.000    0.00
  19.050   20.00    7.29   -2.68   0.000   0.200   0.000    0.00
  19.100   19.42    5.46   -2.47   0.000   0.200   0.000    0.00
  19.150   20.02    5.08   -2.97   0.000   0.200   0.000    0.00
  19.200   20.03    2.25   -1.68   0.000   0.200   0.000    0.00
  19.250   20.49    2.33   -1.97   0.000   0.200   0.000    0.00
  19.300   20.96    0.06   -2.13   0.000   0.200   0.000    0.00
  19.350   21.00    0.38   -1.92   0.000   0.200   0.000    0.00
  19.400   22.65    0.16   -1.82   0.000   0.200   0.000    0.00
  19.450   22.35   -0.18   -1.71   0.000   0.200   0.000    0.00
  19.500   22.13    2.63   -1.83   0.000   0.200   0.000    0.00
  19.550   22.41    4.18   -2.18   0.000   0.200   0.000    0.00
  19.600   22.77    4.78   -2.03   0.000   0.200   0.000    0.00
  19.650   22.39    5.43   -1.50   0.000   0.200   0.000    0.00
  19.700   22.11    7.07   -0.68   0.000   0.200   0.000    0.00
  19.750   22.35    6.74   -0.01   0.000   0.200   0.000    0.00
  19.800   22.39    7.43   -0.34   0.000   0.200   0.000    0.00
  19.850   22.61    7.80    0.10   0.000   0.200   0.000    0.00
  19.900   21.98    6.05    0.67   0.000   0.200   0.000    0.00
  19.950   20.09    6.22    0.44   0.000   0.200   0.000    0.00
  20.000   19.74    5.42    0.61   0.000   0.200   0.000    0.00
  20.050   20.70    6.42    0.10   0.000   0.200   0.000    0.00
  20.100   20.82    8.34    1.11   0.000   0.200   0.000    0.00
  20.150   20.25    5.57    0.94   0.000   0.200   0.000    0.00
  20.200   19.57    4.07    0.66   0.000   0.200   0.000    0.00
  20.250   20.16    3.62    0.11   0.000   0.200   0.000    0.00
  20.300   20.17    2.22   -1.73   0.000   0.200   0.000    0.00
  20.350   19.14    1.11   -2.20   0.000   0.200   0.000    0.00
  20.400   18.79    0.98   -3.35   0.000   0.200   0.000    0.00
  20.450   19.41    1.01   -3.00   0.000   0.200   0.000    0.00
  20.500   17.97   -1.14   -2.63   0.000   0.200   0.000    0.00
  20.550   18.01   -0.87   -2.95   0.000   0.200   0.000    0.00
  20.600   17.92    0.28   -3.40   0.000   0.200   0.000    0.00
  20.650   17.64   -1.42   -3.69   0.000   0.200   0.000    0.00
  20.700   17.43   -3.55   -3.00   0.000   0.200   0.000    0.00
  20.750   17.93    0.72   -3.13   0.000   0.200   0.000    0.00
  20.800   18.02   -1.25   -2.11   0.000   0.200   0.000    0.00
  20.850   18.71   -1.70   -1.94   0.000   0.200   0.000    0.00
  20.900   19.43    2.14   -1.67   0.000   0.200   0.000    0.00
  20.950   18.95    0.44   -1.66   0.000   0.200   0.000    0.00
  21.000   19.16   -2.10   -1.93   0.000   0.200   0.000    0.00
  21.050   19.14   -2.91   -2.16   0.000   0.200   0.000    0.00
  21.100   18.84   -3.15   -2.02   0.000   0.200   0.000    0.00
  21.150   18.94   -2.42   -2.49   0.000   0.200   0.000    0.00
  21.200   18.44   -2.58   -2.18   0.000   0.200   0.000    0.00
  21.250   18.42   -2.29   -1.91   0.000   0.200   0.000    0.00
  21.300   18.93   -3.76   -2.06   0.000   0.200   0.000    0.00
  21.350   19.00   -2.88   -0.78   0.000   0.200   0.000    0.00
  21.400   18.15   -6.10   -1.05   0.000   0.200   0.000    0.00
  21.450   18.25   -3.11   -2.32   0.000   0.200   0.000    0.00
  21.500   18.18   -0.33   -1.98   0.000   0.200   0.000    0.00
  21.550   18.36    1.97   -1.05   0.000   0.200   0.000    0.00
  21.600   18.18    1.52   -0.91   0.000   0.200   0.000    0.00
  21.650   17.64    2.54   -2.20   0.000   0.200   0.000    0.00
  21.700   17.30    2.99   -1.95   0.000   0.200   0.000    0.00
  21.750   17.22    2.28   -2.40   0.000   0.200   0.000    0.00
  21.800   16.48   -2.62   -1.45   0.000   0.200   0.000    0.00
  21.850   16.55   -3.15   -1.30   0.000   0.200   0.000    0.00
  21.900   16.38   -1.88   -1.14   0.000   0.200   0.000    0.00
  21.950   16.42   -0.86   -1.71   0.000   0.200   0.000    0.00
  22.000   16.27   -1.19   -2.58   0.000   0.200   0.000    0.00
  22.050   15.96   -1.43   -1.68   0.000   0.200   0.000    0.00
  22.100   16.62   -0.48   -1.73   0.000   0.200   0.000    0.00
  22.150   17.40    3.22   -0.95   0.000   0.200   0.000    0.00
  22.200   15.82    9.34   -0.57   0.000   0.200   0.000    0.00
  22.250   15.48   10.82   -0.18   0.000   0.200   0.000    0.00
  22.300   15.00    9.77    0.34   0.000   0.200   0.000    0.00
  22.350   14.97    9.80    0.27   0.000   0.200   0.000    0.00
  22.400   14.87    4.46    0.60   0.000   0.200   0.000    0.00
  22.450   14.84    8.56   -0.12   0.000   0.200   0.000    0.00
  22.500   15.47   10.12   -0.50   0.000   0.200   0.000    0.00
  22.550   15.49    8.82   -0.87   0.000   0.200   0.000    0.00
  22.600   15.64    8.27   -1.79   0.000   0.200   0.000    0.00
  22.650   15.98    5.94   -2.37   0.000   0.200   0.000    0.00
  22.700   15.79    8.65   -1.70   0.000   0.200   0.000    0.00