! This hub-height wind-speed file was generated by TurbSim (from OpenFAST--128-NOTFOUND) on 18-Aug-2023 at 23:58:25.
