! This hub-height wind-speed file was generated by TurbSim (from OpenFAST--128-NOTFOUND) on 18-Aug-2023 at 20:18:26.
!
! The requested statistics for this data were:
!    Mean Total Wind Speed =   20.000 m/s
!    Turbulence Intensity  =   14.420%
!
!   Time  HorSpd  WndDir  VerSpd  HorShr  VerShr  LnVShr  GstSpd
!  (sec)   (m/s)   (deg)   (m/s)     (-)     (-)     (-)   (m/s)
   0.000   21.65   -9.15   -3.84   0.000   0.200   0.000    0.00
   0.010   21.63   -9.95   -3.59   0.000   0.200   0.000    0.00
   0.020   21.62   -9.90   -4.03   0.000   0.200   0.000    0.00
   0.030   21.72   -8.06   -3.61   0.000   0.200   0.000    0.00
   0.040   21.70   -7.18   -3.32   0.000   0.200   0.000    0.00
   0.050   22.27   -7.77   -3.52   0.000   0.200   0.000    0.00
   0.060   22.33   -9.40   -3.73   0.000   0.200   0.000    0.00
   0.070   22.14   -7.87   -3.37   0.000   0.200   0.000    0.00
   0.080   22.05   -8.54   -2.74   0.000   0.200   0.000    0.00
   0.090   22.20   -9.69   -2.34   0.000   0.200   0.000    0.00
   0.100   22.03   -9.21   -2.52   0.000   0.200   0.000    0.00
   0.110   22.57  -10.69   -2.27   0.000   0.200   0.000    0.00
   0.120   22.79   -8.89   -1.85   0.000   0.200   0.000    0.00
   0.130   23.26   -9.29   -1.59   0.000   0.200   0.000    0.00
   0.140   23.30   -8.73   -1.33   0.000   0.200   0.000    0.00
   0.150   23.61   -8.54   -0.87   0.000   0.200   0.000    0.00
   0.160   23.17   -8.15   -0.71   0.000   0.200   0.000    0.00
   0.170   23.15   -8.46   -0.46   0.000   0.200   0.000    0.00
   0.180   23.52   -7.11   -0.75   0.000   0.200   0.000    0.00
   0.190   24.10   -6.95   -0.59   0.000   0.200   0.000    0.00
   0.200   24.33   -8.08   -0.76   0.000   0.200   0.000    0.00
   0.210   24.33   -9.00   -0.65   0.000   0.200   0.000    0.00
   0.220   24.25   -8.26   -1.03   0.000   0.200   0.000    0.00
   0.230   24.31   -9.29   -1.36   0.000   0.200   0.000    0.00
   0.240   24.45   -8.98   -1.50   0.000   0.200   0.000    0.00
   0.250   24.19  -10.12   -1.31   0.000   0.200   0.000    0.00
   0.260   24.04   -9.41   -0.89   0.000   0.200   0.000    0.00
   0.270   24.05   -9.38   -1.06   0.000   0.200   0.000    0.00
   0.280   23.99   -9.08   -0.73   0.000   0.200   0.000    0.00
   0.290   23.79   -8.25   -0.38   0.000   0.200   0.000    0.00
   0.300   23.73   -9.24   -0.71   0.000   0.200   0.000    0.00
   0.310   24.17   -9.61   -0.73   0.000   0.200   0.000    0.00
   0.320   24.03   -9.49   -0.52   0.000   0.200   0.000    0.00
   0.330   23.48   -9.52   -0.65   0.000   0.200   0.000    0.00
   0.340   23.67   -8.76   -0.68   0.000   0.200   0.000    0.00
   0.350   23.57   -9.70   -0.74   0.000   0.200   0.000    0.00
   0.360   23.78  -11.15   -0.28   0.000   0.200   0.000    0.00
   0.370   23.46  -11.53   -0.80   0.000   0.200   0.000    0.00
   0.380   23.26  -11.84   -0.40   0.000   0.200   0.000    0.00
   0.390   23.07  -11.12    0.44   0.000   0.200   0.000    0.00
   0.400   22.50   -9.59   -0.55   0.000   0.200   0.000    0.00
   0.410   22.53  -10.47   -0.77   0.000   0.200   0.000    0.00
   0.420   22.71   -9.38   -0.57   0.000   0.200   0.000    0.00
   0.430   22.85  -10.84   -0.98   0.000   0.200   0.000    0.00
   0.440   22.27  -10.49   -0.93   0.000   0.200   0.000    0.00
   0.450   21.97   -8.94   -0.87   0.000   0.200   0.000    0.00
   0.460   22.00   -8.97   -0.97   0.000   0.200   0.000    0.00
   0.470   22.10  -10.54   -0.65   0.000   0.200   0.000    0.00
   0.480   22.06  -10.98   -0.73   0.000   0.200   0.000    0.00
   0.490   22.12  -10.42   -1.20   0.000   0.200   0.000    0.00
   0.500   22.06   -9.93   -1.33   0.000   0.200   0.000    0.00
   0.510   21.87  -10.81   -1.00   0.000   0.200   0.000    0.00
   0.520   22.03  -11.20   -1.59   0.000   0.200   0.000    0.00
   0.530   21.90  -11.47   -1.30   0.000   0.200   0.000    0.00
   0.540   21.58  -10.58   -0.52   0.000   0.200   0.000    0.00
   0.550   21.27   -9.41   -0.47   0.000   0.200   0.000    0.00
   0.560   21.58  -10.21   -0.58   0.000   0.200   0.000    0.00
   0.570   21.92  -10.58   -1.34   0.000   0.200   0.000    0.00
   0.580   22.31   -9.16   -1.39   0.000   0.200   0.000    0.00
   0.590   22.43   -9.10   -1.52   0.000   0.200   0.000    0.00
   0.600   21.93   -9.16   -1.49   0.000   0.200   0.000    0.00
   0.610   22.37   -7.98   -2.03   0.000   0.200   0.000    0.00
   0.620   21.71   -8.03   -2.39   0.000   0.200   0.000    0.00
   0.630   21.99   -7.92   -2.31   0.000   0.200   0.000    0.00
   0.640   21.56   -9.08   -2.24   0.000   0.200   0.000    0.00
   0.650   21.46   -9.65   -1.87   0.000   0.200   0.000    0.00
   0.660   21.84   -8.69   -2.16   0.000   0.200   0.000    0.00
   0.670   22.25   -9.28   -2.35   0.000   0.200   0.000    0.00
   0.680   22.71   -8.26   -1.59   0.000   0.200   0.000    0.00
   0.690   23.16   -8.30   -1.69   0.000   0.200   0.000    0.00
   0.700   23.55   -8.14   -1.82   0.000   0.200   0.000    0.00
   0.710   23.81   -9.68   -1.41   0.000   0.200   0.000    0.00
   0.720   23.66  -11.00   -1.00   0.000   0.200   0.000    0.00
   0.730   23.26  -11.42   -1.04   0.000   0.200   0.000    0.00
   0.740   23.33  -11.60   -1.40   0.000   0.200   0.000    0.00
   0.750   23.52  -10.22   -1.82   0.000   0.200   0.000    0.00
   0.760   23.61   -9.53   -1.53   0.000   0.200   0.000    0.00
   0.770   22.85   -9.26   -1.71   0.000   0.200   0.000    0.00
   0.780   22.58   -8.91   -1.62   0.000   0.200   0.000    0.00
   0.790   22.97   -8.59   -1.38   0.000   0.200   0.000    0.00
   0.800   23.12   -9.10   -1.92   0.000   0.200   0.000    0.00
   0.810   22.74   -9.07   -2.09   0.000   0.200   0.000    0.00
   0.820   22.96   -7.80   -1.93   0.000   0.200   0.000    0.00
   0.830   22.93   -9.28   -2.10   0.000   0.200   0.000    0.00
   0.840   22.38   -8.69   -1.84   0.000   0.200   0.000    0.00
   0.850   22.65   -9.05   -1.35   0.000   0.200   0.000    0.00
   0.860   22.33   -8.34   -1.31   0.000   0.200   0.000    0.00
   0.870   22.70   -8.30   -1.81   0.000   0.200   0.000    0.00
   0.880   22.35   -9.05   -2.09   0.000   0.200   0.000    0.00
   0.890   22.15   -9.56   -2.36   0.000   0.200   0.000    0.00
   0.900   22.03   -9.44   -2.23   0.000   0.200   0.000    0.00
   0.910   21.57   -8.61   -2.23   0.000   0.200   0.000    0.00
   0.920   21.97   -6.74   -1.93   0.000   0.200   0.000    0.00
   0.930   22.39   -7.39   -1.47   0.000   0.200   0.000    0.00
   0.940   22.51   -7.53   -1.61   0.000   0.200   0.000    0.00
   0.950   23.08   -7.57   -1.48   0.000   0.200   0.000    0.00
   0.960   23.31   -7.87   -1.95   0.000   0.200   0.000    0.00
   0.970   23.07   -7.28   -1.56   0.000   0.200   0.000    0.00
   0.980   22.61   -7.96   -1.71   0.000   0.200   0.000    0.00
   0.990   22.55   -7.58   -1.99   0.000   0.200   0.000    0.00
   1.000   22.76   -7.36   -1.63   0.000   0.200   0.000    0.00
   1.010   22.50   -5.64   -1.28   0.000   0.200   0.000    0.00
   1.020   22.21   -4.46   -1.03   0.000   0.200   0.000    0.00
   1.030   22.27   -5.67   -0.73   0.000   0.200   0.000    0.00
   1.040   22.34   -7.69   -1.28   0.000   0.200   0.000    0.00
   1.050   22.22   -7.93   -1.35   0.000   0.200   0.000    0.00
   1.060   22.30   -7.22   -1.38   0.000   0.200   0.000    0.00
   1.070   22.92   -6.84   -1.58   0.000   0.200   0.000    0.00
   1.080   22.99   -7.24   -2.11   0.000   0.200   0.000    0.00
   1.090   22.79   -6.75   -1.81   0.000   0.200   0.000    0.00
   1.100   22.06   -7.01   -1.99   0.000   0.200   0.000    0.00
   1.110   21.71   -7.60   -1.19   0.000   0.200   0.000    0.00
   1.120   22.11   -7.84   -0.72   0.000   0.200   0.000    0.00
   1.130   22.49   -7.69   -0.46   0.000   0.200   0.000    0.00
   1.140   22.18   -7.85   -0.11   0.000   0.200   0.000    0.00
   1.150   21.39   -5.75   -0.94   0.000   0.200   0.000    0.00
   1.160   21.66   -5.34    0.01   0.000   0.200   0.000    0.00
   1.170   21.86   -4.21    0.29   0.000   0.200   0.000    0.00
   1.180   22.84   -5.24    0.43   0.000   0.200   0.000    0.00
   1.190   22.50   -5.05    0.88   0.000   0.200   0.000    0.00
   1.200   22.24   -5.89    1.09   0.000   0.200   0.000    0.00
   1.210   22.08   -6.26    1.25   0.000   0.200   0.000    0.00
   1.220   21.80   -5.60    1.10   0.000   0.200   0.000    0.00
   1.230   22.42   -8.59    1.15   0.000   0.200   0.000    0.00
   1.240   22.19   -8.54    1.27   0.000   0.200   0.000    0.00
   1.250   22.49   -8.39    1.53   0.000   0.200   0.000    0.00
   1.260   23.03   -9.93    1.84   0.000   0.200   0.000    0.00
   1.270   23.07   -9.41    2.71   0.000   0.200   0.000    0.00
   1.280   22.82   -9.90    2.52   0.000   0.200   0.000    0.00
   1.290   23.02   -9.54    2.14   0.000   0.200   0.000    0.00
   1.300   23.24  -10.45    2.49   0.000   0.200   0.000    0.00
   1.310   22.88  -10.40    2.33   0.000   0.200   0.000    0.00
   1.320   23.10  -11.23    2.70   0.000   0.200   0.000    0.00
   1.330   23.18  -10.16    2.42   0.000   0.200   0.000    0.00
   1.340   23.48  -10.23    2.51   0.000   0.200   0.000    0.00
   1.350   23.66   -9.06    2.51   0.000   0.200   0.000    0.00
   1.360   23.02   -9.02    1.51   0.000   0.200   0.000    0.00
   1.370   22.90   -8.70    1.53   0.000   0.200   0.000    0.00
   1.380   22.94   -9.15    1.55   0.000   0.200   0.000    0.00
   1.390   22.68   -9.71    0.97   0.000   0.200   0.000    0.00
   1.400   22.60  -10.90    0.77   0.000   0.200   0.000    0.00
   1.410   22.48  -11.08    0.67   0.000   0.200   0.000    0.00
   1.420   22.43   -8.79    0.51   0.000   0.200   0.000    0.00
   1.430   22.26  -10.94    0.89   0.000   0.200   0.000    0.00
   1.440   22.26  -11.64    0.79   0.000   0.200   0.000    0.00
   1.450   22.34  -11.74    1.01   0.000   0.200   0.000    0.00
   1.460   21.83  -12.75    1.23   0.000   0.200   0.000    0.00
   1.470   21.38  -11.78    1.11   0.000   0.200   0.000    0.00
   1.480   22.27  -10.95    0.81   0.000   0.200   0.000    0.00
   1.490   22.18  -11.73    0.90   0.000   0.200   0.000    0.00
   1.500   22.07  -11.80    1.31   0.000   0.200   0.000    0.00
   1.510   21.88  -11.08    1.71   0.000   0.200   0.000    0.00
   1.520   21.65  -12.10    1.87   0.000   0.200   0.000    0.00
   1.530   21.22  -10.83    1.84   0.000   0.200   0.000    0.00
   1.540   21.92  -10.78    1.95   0.000   0.200   0.000    0.00
   1.550   21.43  -10.97    2.34   0.000   0.200   0.000    0.00
   1.560   20.88  -11.15    1.81   0.000   0.200   0.000    0.00
   1.570   21.10  -10.92    1.67   0.000   0.200   0.000    0.00
   1.580   21.44  -11.04    1.65   0.000   0.200   0.000    0.00
   1.590   21.31  -11.25    2.43   0.000   0.200   0.000    0.00
   1.600   21.53  -12.31    2.60   0.000   0.200   0.000    0.00
   1.610   21.59  -13.60    1.80   0.000   0.200   0.000    0.00
   1.620   20.94  -12.28    1.49   0.000   0.200   0.000    0.00
   1.630   21.24  -12.06    1.72   0.000   0.200   0.000    0.00
   1.640   21.30   -9.74    1.20   0.000   0.200   0.000    0.00
   1.650   21.32   -8.39    1.01   0.000   0.200   0.000    0.00
   1.660   21.01   -8.37    0.72   0.000   0.200   0.000    0.00
   1.670   21.21   -8.98    0.97   0.000   0.200   0.000    0.00
   1.680   21.40   -9.03    1.81   0.000   0.200   0.000    0.00
   1.690   21.43   -9.51    1.49   0.000   0.200   0.000    0.00
   1.700   21.73   -9.38    1.43   0.000   0.200   0.000    0.00
   1.710   21.97   -9.78    1.59   0.000   0.200   0.000    0.00
   1.720   22.03   -7.46    1.51   0.000   0.200   0.000    0.00
   1.730   21.54   -7.13    0.97   0.000   0.200   0.000    0.00
   1.740   21.70   -5.01    0.40   0.000   0.200   0.000    0.00
   1.750   21.88   -4.12    1.25   0.000   0.200   0.000    0.00
   1.760   21.72   -5.27    1.27   0.000   0.200   0.000    0.00
   1.770   21.59   -3.89    1.43   0.000   0.200   0.000    0.00
   1.780   21.17   -3.22    2.20   0.000   0.200   0.000    0.00
   1.790   21.70   -3.23    2.54   0.000   0.200   0.000    0.00
   1.800   22.27   -3.90    1.68   0.000   0.200   0.000    0.00
   1.810   22.54   -3.88    1.80   0.000   0.200   0.000    0.00
   1.820   22.07   -3.91    1.75   0.000   0.200   0.000    0.00
   1.830   22.04   -3.81    1.30   0.000   0.200   0.000    0.00
   1.840   21.90   -4.23    0.89   0.000   0.200   0.000    0.00
   1.850   22.26   -4.40    0.68   0.000   0.200   0.000    0.00
   1.860   22.37   -4.44    0.32   0.000   0.200   0.000    0.00
   1.870   21.97   -5.26   -0.14   0.000   0.200   0.000    0.00
   1.880   21.66   -5.01    0.12   0.000   0.200   0.000    0.00
   1.890   22.02   -4.46    0.30   0.000   0.200   0.000    0.00
   1.900   22.10   -4.84    0.64   0.000   0.200   0.000    0.00
   1.910   21.80   -4.54    0.39   0.000   0.200   0.000    0.00
   1.920   22.15   -5.61    0.12   0.000   0.200   0.000    0.00
   1.930   22.23   -6.38    0.43   0.000   0.200   0.000    0.00
   1.940   22.35   -6.21    0.43   0.000   0.200   0.000    0.00
   1.950   21.72   -6.00    1.13   0.000   0.200   0.000    0.00
   1.960   21.70   -5.01    1.19   0.000   0.200   0.000    0.00
   1.970   22.19   -6.68    1.18   0.000   0.200   0.000    0.00
   1.980   21.76   -6.36    1.06   0.000   0.200   0.000    0.00
   1.990   21.60   -6.46    0.58   0.000   0.200   0.000    0.00
   2.000   21.24   -5.14    0.36   0.000   0.200   0.000    0.00
   2.010   20.93   -6.37    0.11   0.000   0.200   0.000    0.00
   2.020   20.98   -6.59   -0.26   0.000   0.200   0.000    0.00
   2.030   21.12   -5.81   -0.28   0.000   0.200   0.000    0.00
   2.040   20.89   -7.05   -0.85   0.000   0.200   0.000    0.00
   2.050   21.34   -5.56   -0.79   0.000   0.200   0.000    0.00
   2.060   21.83   -6.52   -0.83   0.000   0.200   0.000    0.00
   2.070   21.77   -5.19   -1.17   0.000   0.200   0.000    0.00
   2.080   21.62   -4.80   -1.39   0.000   0.200   0.000    0.00
   2.090   21.76   -6.22   -1.57   0.000   0.200   0.000    0.00
   2.100   21.40   -6.48   -0.94   0.000   0.200   0.000    0.00
   2.110   21.16   -6.20   -0.51   0.000   0.200   0.000    0.00
   2.120   20.76   -6.69   -0.52   0.000   0.200   0.000    0.00
   2.130   20.99   -7.80   -1.12   0.000   0.200   0.000    0.00
   2.140   20.84   -8.34   -1.62   0.000   0.200   0.000    0.00
   2.150   21.15   -8.83   -1.84   0.000   0.200   0.000    0.00
   2.160   21.06   -9.59   -1.63   0.000   0.200   0.000    0.00
   2.170   20.97   -9.19   -0.83   0.000   0.200   0.000    0.00
   2.180   20.45   -7.88   -0.43   0.000   0.200   0.000    0.00
   2.190   20.27   -8.18   -0.66   0.000   0.200   0.000    0.00
   2.200   19.78   -8.08   -1.10   0.000   0.200   0.000    0.00
   2.210   19.52   -6.63   -1.13   0.000   0.200   0.000    0.00
   2.220   19.35   -7.72   -0.95   0.000   0.200   0.000    0.00
   2.230   19.38   -8.82   -1.19   0.000   0.200   0.000    0.00
   2.240   19.45   -7.66   -1.44   0.000   0.200   0.000    0.00
   2.250   19.88   -8.27   -1.20   0.000   0.200   0.000    0.00
   2.260   20.05   -7.15   -1.04   0.000   0.200   0.000    0.00
   2.270   20.39   -7.53   -0.90   0.000   0.200   0.000    0.00
   2.280   20.52   -8.30   -0.61   0.000   0.200   0.000    0.00
   2.290   20.04   -7.47   -0.64   0.000   0.200   0.000    0.00
   2.300   20.07   -6.62   -0.33   0.000   0.200   0.000    0.00
   2.310   20.11   -7.45   -0.17   0.000   0.200   0.000    0.00
   2.320   19.65   -7.16   -0.21   0.000   0.200   0.000    0.00
   2.330   20.12   -7.58   -0.72   0.000   0.200   0.000    0.00
   2.340   20.22   -5.38   -0.63   0.000   0.200   0.000    0.00
   2.350   20.29   -5.29   -0.71   0.000   0.200   0.000    0.00
   2.360   20.02   -5.70   -1.16   0.000   0.200   0.000    0.00
   2.370   20.13   -5.75   -0.79   0.000   0.200   0.000    0.00
   2.380   20.54   -5.98   -0.38   0.000   0.200   0.000    0.00
   2.390   20.94   -5.43    0.10   0.000   0.200   0.000    0.00
   2.400   21.00   -5.27    0.74   0.000   0.200   0.000    0.00
   2.410   20.81   -7.07    0.98   0.000   0.200   0.000    0.00
   2.420   20.79   -7.83    0.90   0.000   0.200   0.000    0.00
   2.430   20.24   -7.41    1.28   0.000   0.200   0.000    0.00
   2.440   19.67   -8.83    1.23   0.000   0.200   0.000    0.00
   2.450   19.70   -8.31    0.56   0.000   0.200   0.000    0.00
   2.460   19.74   -7.36    0.07   0.000   0.200   0.000    0.00
   2.470   19.82   -7.85    0.05   0.000   0.200   0.000    0.00
   2.480   20.21   -6.96    0.25   0.000   0.200   0.000    0.00
   2.490   20.04   -8.97   -0.16   0.000   0.200   0.000    0.00
   2.500   20.46   -9.66   -0.13   0.000   0.200   0.000    0.00
   2.510   20.90   -8.89    0.19   0.000   0.200   0.000    0.00
   2.520   20.98   -9.56    0.32   0.000   0.200   0.000    0.00
   2.530   20.80   -9.71   -0.02   0.000   0.200   0.000    0.00
   2.540   21.21   -9.21    0.34   0.000   0.200   0.000    0.00
   2.550   21.54   -7.82    0.25   0.000   0.200   0.000    0.00
   2.560   21.00   -7.86   -0.01   0.000   0.200   0.000    0.00
   2.570   21.19   -8.54    0.71   0.000   0.200   0.000    0.00
   2.580   20.88   -7.80    0.23   0.000   0.200   0.000    0.00
   2.590   21.58   -8.92    0.97   0.000   0.200   0.000    0.00
   2.600   21.12   -9.42    1.20   0.000   0.200   0.000    0.00
   2.610   20.45   -9.43    0.69   0.000   0.200   0.000    0.00
   2.620   19.94   -9.84    1.22   0.000   0.200   0.000    0.00
   2.630   19.61   -9.96    1.60   0.000   0.200   0.000    0.00
   2.640   19.68  -10.34    1.55   0.000   0.200   0.000    0.00
   2.650   19.85  -10.75    1.52   0.000   0.200   0.000    0.00
   2.660   20.45   -9.52    0.84   0.000   0.200   0.000    0.00
   2.670   20.04  -10.02    0.59   0.000   0.200   0.000    0.00
   2.680   19.84  -11.79    0.45   0.000   0.200   0.000    0.00
   2.690   20.24  -12.03   -0.02   0.000   0.200   0.000    0.00
   2.700   20.57  -11.30   -0.03   0.000   0.200   0.000    0.00
   2.710   20.50  -11.30    0.23   0.000   0.200   0.000    0.00
   2.720   20.46  -11.02    0.33   0.000   0.200   0.000    0.00
   2.730   20.52  -10.87    0.31   0.000   0.200   0.000    0.00
   2.740   20.24  -10.09    0.35   0.000   0.200   0.000    0.00
   2.750   20.18  -11.06    0.70   0.000   0.200   0.000    0.00
   2.760   20.53  -10.46    0.71   0.000   0.200   0.000    0.00
   2.770   20.91  -10.09    0.60   0.000   0.200   0.000    0.00
   2.780   20.80   -9.45    0.19   0.000   0.200   0.000    0.00
   2.790   20.75   -9.58   -0.43   0.000   0.200   0.000    0.00
   2.800   20.20   -9.70   -0.82   0.000   0.200   0.000    0.00
   2.810   20.40   -9.98   -0.51   0.000   0.200   0.000    0.00
   2.820   19.97  -10.22   -0.13   0.000   0.200   0.000    0.00
   2.830   19.74   -9.09   -0.08   0.000   0.200   0.000    0.00
   2.840   19.77   -7.94    0.06   0.000   0.200   0.000    0.00
   2.850   19.81   -8.23   -0.13   0.000   0.200   0.000    0.00
   2.860   19.41   -8.48    0.22   0.000   0.200   0.000    0.00
   2.870   19.80   -8.99    0.36   0.000   0.200   0.000    0.00
   2.880   20.00  -10.91    0.19   0.000   0.200   0.000    0.00
   2.890   20.50  -10.06   -0.07   0.000   0.200   0.000    0.00
   2.900   20.11   -9.68    0.30   0.000   0.200   0.000    0.00
   2.910   19.66  -10.57    0.21   0.000   0.200   0.000    0.00
   2.920   19.92  -11.39   -0.30   0.000   0.200   0.000    0.00
   2.930   20.37  -11.33   -0.23   0.000   0.200   0.000    0.00
   2.940   19.96   -9.64   -0.73   0.000   0.200   0.000    0.00
   2.950   19.85   -9.18   -0.59   0.000   0.200   0.000    0.00
   2.960   19.78   -8.97   -1.22   0.000   0.200   0.000    0.00
   2.970   20.16   -9.33   -1.66   0.000   0.200   0.000    0.00
   2.980   20.45   -8.95   -1.32   0.000   0.200   0.000    0.00
   2.990   20.69   -8.04   -1.15   0.000   0.200   0.000    0.00
   3.000   20.65   -7.40   -1.23   0.000   0.200   0.000    0.00
   3.010   20.68   -8.24   -1.27   0.000   0.200   0.000    0.00
   3.020   21.07   -8.16   -1.15   0.000   0.200   0.000    0.00
   3.030   20.92   -8.07   -0.88   0.000   0.200   0.000    0.00
   3.040   20.72   -8.29   -0.74   0.000   0.200   0.000    0.00
   3.050   20.33   -9.56   -0.92   0.000   0.200   0.000    0.00
   3.060   20.07  -10.32   -1.00   0.000   0.200   0.000    0.00
   3.070   19.78  -11.33   -1.37   0.000   0.200   0.000    0.00
   3.080   19.75  -11.91   -0.34   0.000   0.200   0.000    0.00
   3.090   19.93  -11.59    0.16   0.000   0.200   0.000    0.00
   3.100   19.83   -8.90    0.07   0.000   0.200   0.000    0.00
   3.110   19.92   -9.00    0.05   0.000   0.200   0.000    0.00
   3.120   20.06   -8.85   -0.12   0.000   0.200   0.000    0.00
   3.130   20.25   -7.93    0.06   0.000   0.200   0.000    0.00
   3.140   20.33  -10.13   -0.14   0.000   0.200   0.000    0.00
   3.150   20.26  -10.22   -0.13   0.000   0.200   0.000    0.00
   3.160   20.32   -9.99   -0.11   0.000   0.200   0.000    0.00
   3.170   20.23  -10.70   -0.62   0.000   0.200   0.000    0.00
   3.180   20.30  -10.51   -0.50   0.000   0.200   0.000    0.00
   3.190   20.47   -9.64   -0.28   0.000   0.200   0.000    0.00
   3.200   20.65   -8.85    0.60   0.000   0.200   0.000    0.00
   3.210   20.63   -7.33   -0.56   0.000   0.200   0.000    0.00
   3.220   21.10   -7.53   -0.52   0.000   0.200   0.000    0.00
   3.230   21.16   -7.03   -0.23   0.000   0.200   0.000    0.00
   3.240   20.58   -6.07   -0.19   0.000   0.200   0.000    0.00
   3.250   20.21   -4.89   -0.33   0.000   0.200   0.000    0.00
   3.260   20.56   -5.72   -0.10   0.000   0.200   0.000    0.00
   3.270   20.76   -5.67   -0.30   0.000   0.200   0.000    0.00
   3.280   20.89   -6.90   -0.62   0.000   0.200   0.000    0.00
   3.290   21.29   -5.77   -0.45   0.000   0.200   0.000    0.00
   3.300   21.25   -4.99   -0.23   0.000   0.200   0.000    0.00
   3.310   21.38   -4.68   -0.51   0.000   0.200   0.000    0.00
   3.320   20.96   -3.24   -0.65   0.000   0.200   0.000    0.00
   3.330   20.63   -2.51   -0.88   0.000   0.200   0.000    0.00
   3.340   20.52   -2.35   -0.59   0.000   0.200   0.000    0.00
   3.350   20.69   -4.04    0.21   0.000   0.200   0.000    0.00
   3.360   20.73   -3.76    0.31   0.000   0.200   0.000    0.00
   3.370   20.26   -3.62    0.88   0.000   0.200   0.000    0.00
   3.380   20.57   -4.40    0.11   0.000   0.200   0.000    0.00
   3.390   20.92   -5.71   -1.01   0.000   0.200   0.000    0.00
   3.400   20.80   -5.32   -1.01   0.000   0.200   0.000    0.00
   3.410   20.10   -4.10   -0.72   0.000   0.200   0.000    0.00
   3.420   19.73   -3.52   -1.37   0.000   0.200   0.000    0.00
   3.430   20.13   -4.00   -1.11   0.000   0.200   0.000    0.00
   3.440   20.81   -3.10   -1.28   0.000   0.200   0.000    0.00
   3.450   21.13   -2.56   -1.88   0.000   0.200   0.000    0.00
   3.460   21.33   -2.51   -2.02   0.000   0.200   0.000    0.00
   3.470   21.17   -3.28   -1.98   0.000   0.200   0.000    0.00
   3.480   21.12   -3.83   -1.96   0.000   0.200   0.000    0.00
   3.490   21.32   -2.62   -2.52   0.000   0.200   0.000    0.00
   3.500   21.60   -1.34   -2.82   0.000   0.200   0.000    0.00
   3.510   20.84    0.17   -3.46   0.000   0.200   0.000    0.00
   3.520   20.58    0.27   -3.36   0.000   0.200   0.000    0.00
   3.530   21.10    0.14   -2.82   0.000   0.200   0.000    0.00
   3.540   21.19    0.13   -2.71   0.000   0.200   0.000    0.00
   3.550   20.95    1.94   -2.37   0.000   0.200   0.000    0.00
   3.560   20.49    1.86   -2.34   0.000   0.200   0.000    0.00
   3.570   20.06    0.37   -1.92   0.000   0.200   0.000    0.00
   3.580   20.16    1.32   -2.13   0.000   0.200   0.000    0.00
   3.590   20.29    1.83   -2.52   0.000   0.200   0.000    0.00
   3.600   20.15    2.87   -2.55   0.000   0.200   0.000    0.00
   3.610   20.05    1.70   -2.33   0.000   0.200   0.000    0.00
   3.620   19.82    2.02   -2.86   0.000   0.200   0.000    0.00
   3.630   19.73    2.28   -2.98   0.000   0.200   0.000    0.00
   3.640   19.92    3.83   -2.64   0.000   0.200   0.000    0.00
   3.650   20.20    3.05   -2.86   0.000   0.200   0.000    0.00
   3.660   20.29    1.64   -2.67   0.000   0.200   0.000    0.00
   3.670   20.04    2.04   -2.55   0.000   0.200   0.000    0.00
   3.680   20.08    2.25   -2.66   0.000   0.200   0.000    0.00
   3.690   20.02    4.14   -2.77   0.000   0.200   0.000    0.00
   3.700   20.23    4.13   -2.67   0.000   0.200   0.000    0.00
   3.710   20.04    4.84   -2.70   0.000   0.200   0.000    0.00
   3.720   20.45    3.87   -3.05   0.000   0.200   0.000    0.00
   3.730   21.08    5.25   -3.58   0.000   0.200   0.000    0.00
   3.740   20.80    4.74   -3.34   0.000   0.200   0.000    0.00
   3.750   20.85    3.97   -3.09   0.000   0.200   0.000    0.00
   3.760   20.78    2.25   -2.39   0.000   0.200   0.000    0.00
   3.770   20.49    3.75   -2.18   0.000   0.200   0.000    0.00
   3.780   20.59    3.63   -2.55   0.000   0.200   0.000    0.00
   3.790   20.35    4.32   -2.26   0.000   0.200   0.000    0.00
   3.800   20.15    4.90   -2.74   0.000   0.200   0.000    0.00
   3.810   20.85    3.26   -2.77   0.000   0.200   0.000    0.00
   3.820   20.95    3.58   -2.44   0.000   0.200   0.000    0.00
   3.830   20.99    4.79   -2.61   0.000   0.200   0.000    0.00
   3.840   20.94    4.26   -2.30   0.000   0.200   0.000    0.00
   3.850   21.27    2.34   -2.58   0.000   0.200   0.000    0.00
   3.860   20.80    2.84   -3.02   0.000   0.200   0.000    0.00
   3.870   20.81    4.31   -2.78   0.000   0.200   0.000    0.00
   3.880   21.48    5.21   -2.66   0.000   0.200   0.000    0.00
   3.890   21.46    5.17   -2.78   0.000   0.200   0.000    0.00
   3.900   20.92    4.98   -2.47   0.000   0.200   0.000    0.00
   3.910   20.76    4.88   -2.16   0.000   0.200   0.000    0.00
   3.920   20.90    5.47   -1.90   0.000   0.200   0.000    0.00
   3.930   20.72    5.92   -2.44   0.000   0.200   0.000    0.00
   3.940   20.71    4.80   -3.15   0.000   0.200   0.000    0.00
   3.950   20.85    5.40   -3.08   0.000   0.200   0.000    0.00
   3.960   20.69    5.41   -2.78   0.000   0.200   0.000    0.00
   3.970   20.61    4.00   -3.23   0.000   0.200   0.000    0.00
   3.980   20.25    5.16   -2.98   0.000   0.200   0.000    0.00
   3.990   20.59    4.56   -3.13   0.000   0.200   0.000    0.00
   4.000   20.43    3.30   -3.52   0.000   0.200   0.000    0.00
   4.010   19.85    2.55   -3.51   0.000   0.200   0.000    0.00
   4.020   19.73    3.03   -3.39   0.000   0.200   0.000    0.00
   4.030   20.02    4.88   -3.74   0.000   0.200   0.000    0.00
   4.040   19.54    4.59   -4.35   0.000   0.200   0.000    0.00
   4.050   19.92    2.19   -3.49   0.000   0.200   0.000    0.00
   4.060   20.83    3.34   -3.12   0.000   0.200   0.000    0.00
   4.070   20.81    1.41   -3.08   0.000   0.200   0.000    0.00
   4.080   20.70    0.61   -2.84   0.000   0.200   0.000    0.00
   4.090   20.40   -0.86   -2.98   0.000   0.200   0.000    0.00
   4.100   20.41   -2.32   -3.14   0.000   0.200   0.000    0.00
   4.110   20.31   -3.51   -3.30   0.000   0.200   0.000    0.00
   4.120   20.06   -3.36   -3.17   0.000   0.200   0.000    0.00
   4.130   20.38   -3.95   -3.38   0.000   0.200   0.000    0.00
   4.140   20.49   -4.26   -3.41   0.000   0.200   0.000    0.00
   4.150   20.36   -2.90   -3.54   0.000   0.200   0.000    0.00
   4.160   19.87   -3.73   -3.18   0.000   0.200   0.000    0.00
   4.170   19.84   -4.58   -3.03   0.000   0.200   0.000    0.00
   4.180   20.00   -5.58   -2.69   0.000   0.200   0.000    0.00
   4.190   19.26   -4.56   -3.58   0.000   0.200   0.000    0.00
   4.200   19.11   -5.90   -4.17   0.000   0.200   0.000    0.00
   4.210   18.92   -5.34   -4.10   0.000   0.200   0.000    0.00
   4.220   18.85   -6.84   -4.55   0.000   0.200   0.000    0.00
   4.230   18.75   -7.77   -4.49   0.000   0.200   0.000    0.00
   4.240   18.51   -6.77   -4.63   0.000   0.200   0.000    0.00
   4.250   18.52   -6.73   -4.42   0.000   0.200   0.000    0.00
   4.260   18.18   -6.50   -4.39   0.000   0.200   0.000    0.00
   4.270   17.50   -5.94   -3.77   0.000   0.200   0.000    0.00
   4.280   17.59   -5.35   -3.68   0.000   0.200   0.000    0.00
   4.290   17.79   -7.34   -3.79   0.000   0.200   0.000    0.00
   4.300   17.85   -7.83   -3.83   0.000   0.200   0.000    0.00
   4.310   17.89   -7.58   -4.32   0.000   0.200   0.000    0.00
   4.320   18.03   -9.93   -4.26   0.000   0.200   0.000    0.00
   4.330   18.37   -9.65   -4.24   0.000   0.200   0.000    0.00
   4.340   18.35  -10.00   -4.43   0.000   0.200   0.000    0.00
   4.350   17.95  -11.75   -4.12   0.000   0.200   0.000    0.00
   4.360   18.14  -11.69   -4.65   0.000   0.200   0.000    0.00
   4.370   18.36  -12.26   -3.98   0.000   0.200   0.000    0.00
   4.380   18.13  -12.53   -4.04   0.000   0.200   0.000    0.00
   4.390   18.21  -13.02   -3.47   0.000   0.200   0.000    0.00
   4.400   18.15  -12.41   -3.34   0.000   0.200   0.000    0.00
   4.410   18.19  -11.05   -3.04   0.000   0.200   0.000    0.00
   4.420   17.76  -10.48   -3.09   0.000   0.200   0.000    0.00
   4.430   18.63  -11.37   -2.87   0.000   0.200   0.000    0.00
   4.440   18.49   -9.52   -2.14   0.000   0.200   0.000    0.00
   4.450   18.49   -8.92   -2.23   0.000   0.200   0.000    0.00
   4.460   18.53   -8.53   -2.72   0.000   0.200   0.000    0.00
   4.470   18.46   -8.94   -3.39   0.000   0.200   0.000    0.00
   4.480   18.26   -7.34   -2.97   0.000   0.200   0.000    0.00
   4.490   18.13   -8.07   -2.87   0.000   0.200   0.000    0.00
   4.500   18.23   -9.00   -3.21   0.000   0.200   0.000    0.00
   4.510   17.72   -8.81   -2.91   0.000   0.200   0.000    0.00
   4.520   17.49   -9.57   -3.33   0.000   0.200   0.000    0.00
   4.530   17.20   -8.38   -3.49   0.000   0.200   0.000    0.00
   4.540   17.83   -8.89   -3.66   0.000   0.200   0.000    0.00